[Format]      =  1
[Precision]   =  1e-008
[Frequency]   =  60
[MinAngle]    =  30
[DoSmartMesh] =  1
[Depth]       =  0.035000000000000003
[LengthUnits] =  millimeters
[ProblemType] =  planar
[Coordinates] =  cartesian
[Comment]     =  "Add comments here."
[PointProps]   = 0
[BdryProps]   = 2
  <BeginBdry>
    <BdryName> = "3.3V"
    <BdryType> = 0
    <vsr> = 3.2999999999999998
    <vsi> = 0
    <qsr> = 0
    <qsi> = 0
    <c0r>  = 0
    <c0i>  = 0
    <c1r>  = 0
    <c1i>  = 0
  <EndBdry>
  <BeginBdry>
    <BdryName> = "GND"
    <BdryType> = 0
    <vsr> = 0
    <vsi> = 0
    <qsr> = 0
    <qsi> = 0
    <c0r>  = 0
    <c0i>  = 0
    <c1r>  = 0
    <c1i>  = 0
  <EndBdry>
[BlockProps]  = 2
  <BeginBlock>
    <BlockName> = "Copper"
    <ox> = 58000000
    <oy> = 58000000
    <ex> = 1
    <ey> = 1
    <ltx> = 0
    <lty> = 0
  <EndBlock>
  <BeginBlock>
    <BlockName> = "Air"
    <ox> = 0
    <oy> = 0
    <ex> = 1
    <ey> = 1
    <ltx> = 0
    <lty> = 0
  <EndBlock>
[ConductorProps]  = 3
  <BeginConductor>
    <ConductorName> = "0.1A"
    <vcr> = 0
    <vci> = 0
    <qcr> = 0.10000000000000001
    <qci> = 0
    <ConductorType> = 0
  <EndConductor>
  <BeginConductor>
    <ConductorName> = "0.05A"
    <vcr> = 0
    <vci> = 0
    <qcr> = 0.050000000000000003
    <qci> = 0
    <ConductorType> = 0
  <EndConductor>
  <BeginConductor>
    <ConductorName> = "-0.1A"
    <vcr> = 0
    <vci> = 0
    <qcr> = -0.10000000000000001
    <qci> = 0
    <ConductorType> = 0
  <EndConductor>
[NumPoints] = 269
290.73737003999372	267.84693020502618	0	1	0
290.79286603999373	267.77734120502612	0	1	0
290.81267203999369	267.69056420502608	0	1	0
290.79286603999373	267.60378720502621	0	1	0
290.73737003999372	267.53419820502609	0	1	0
290.65717603999371	267.49557820502622	0	1	0
290.56816803999368	267.49557820502622	0	1	0
290.48797403999367	267.53419820502609	0	1	0
290.43247803999373	267.60378720502621	0	1	0
290.41267203999371	267.69056420502608	0	1	0
290.43247803999373	267.77734120502612	0	1	0
290.56816803999368	267.88555020502622	0	1	0
290.65717603999371	267.88555020502622	0	1	0
289.54737003999372	272.26693020502609	0	1	0
289.60286603999373	272.19734120502608	0	1	0
289.62267203999369	272.11056420502621	0	1	0
289.60286603999373	272.02378720502622	0	1	0
289.54737003999372	271.95419820502622	0	1	0
289.46717603999372	271.91557820502612	0	1	0
289.37816803999368	271.91557820502612	0	1	0
289.29797403999368	271.95419820502622	0	1	0
289.24247803999373	272.02378720502622	0	1	0
289.22267203999371	272.11056420502621	0	1	0
289.24247803999373	272.19734120502608	0	1	0
289.29797403999368	272.26693020502609	0	1	0
289.37816803999368	272.30555020502618	0	1	0
289.46717603999372	272.30555020502618	0	1	0
290.73737003999372	277.84693020502618	0	1	0
290.79286603999373	277.77734120502618	0	1	0
290.81267203999369	277.69056420502608	0	1	0
290.79286603999373	277.60378720502621	0	1	0
290.73737003999372	277.53419820502609	0	1	0
290.65717603999371	277.49557820502622	0	1	0
290.56816803999368	277.49557820502622	0	1	0
290.48797403999367	277.53419820502609	0	1	0
290.43247803999373	277.60378720502621	0	1	0
290.41267203999371	277.69056420502608	0	1	0
290.43247803999373	277.77734120502618	0	1	0
290.48797403999367	277.84693020502618	0	1	0
290.56816803999368	277.88555020502622	0	1	0
290.65717603999371	277.88555020502622	0	1	0
302.3541590399937	281.79205120502621	0	1	0
302.3721720399937	281.74856420502613	0	1	0
302.3721720399937	279.17256420502622	0	1	0
302.3541590399937	279.12907720502608	0	1	0
302.31067203999368	279.11106420502608	0	1	0
301.60860003999369	279.11106420502608	0	1	0
301.48293303999372	279.08606720502621	0	1	0
301.4829190399937	279.08606320502622	0	1	0
301.36455103999373	279.03703220502621	0	1	0
301.2580030399937	278.96584120502621	0	1	0
301.16739503999372	278.87523320502618	0	1	0
301.09620803999371	278.76869320502612	0	1	0
301.04717303999371	278.65031720502623	0	1	0
301.04716903999372	278.65030320502609	0	1	0
301.02217203999368	278.52463720502612	0	1	0
301.02217203999368	278.39649220502622	0	1	0
301.04716903999372	278.27082620502608	0	1	0
301.04717303999371	278.27081220502617	0	1	0
301.09620403999372	278.15244420502609	0	1	0
301.16739503999372	278.04589620502622	0	1	0
301.2580030399937	277.95528820502608	0	1	0
301.31145303999369	277.91957420502621	0	1	0
301.36454503999369	277.88409920502608	0	1	0
301.41189803999367	277.86448520502609	0	1	0
301.4829190399937	277.83506620502612	0	1	0
301.60859903999369	277.81006520502609	0	1	0
302.31067203999368	277.81006420502621	0	1	0
302.3541590399937	277.79205120502621	0	1	0
302.3721720399937	277.74856420502613	0	1	0
302.3721720399937	276.63256420502609	0	1	0
302.3541590399937	276.58907720502617	0	1	0
302.31067203999368	276.57106420502618	0	1	0
301.60860003999369	276.57106420502618	0	1	0
301.48293303999372	276.54606720502608	0	1	0
301.4829190399937	276.54606320502609	0	1	0
301.36455103999373	276.49703220502607	0	1	0
301.2580030399937	276.42584120502607	0	1	0
301.16739503999372	276.33523320502621	0	1	0
301.09620803999371	276.22869320502622	0	1	0
301.04717303999371	276.11031720502609	0	1	0
301.04716903999372	276.11030320502618	0	1	0
301.02217203999368	275.98463720502622	0	1	0
301.02217203999368	275.85649220502609	0	1	0
301.04716903999372	275.73082620502618	0	1	0
301.04717303999371	275.73081220502621	0	1	0
301.09620403999372	275.61244420502612	0	1	0
301.16739503999372	275.50589620502609	0	1	0
301.2580030399937	275.41528820502617	0	1	0
301.31145303999369	275.37957420502607	0	1	0
301.36454503999369	275.34409920502623	0	1	0
301.41189803999367	275.32448520502612	0	1	0
301.4829190399937	275.29506620502622	0	1	0
301.60859903999369	275.27006520502619	0	1	0
302.31067203999368	275.27006420502607	0	1	0
302.3541590399937	275.25205120502608	0	1	0
302.3721720399937	275.20856420502622	0	1	0
302.3721720399937	274.09256420502618	0	1	0
302.3541590399937	274.04907720502621	0	1	0
302.31067203999368	274.03106420502621	0	1	0
301.60860003999369	274.03106420502621	0	1	0
301.48293303999372	274.00606720502623	0	1	0
301.4829190399937	274.00606320502618	0	1	0
301.36455103999373	273.95703220502622	0	1	0
301.2580030399937	273.88584120502622	0	1	0
301.16739503999372	273.79523320502608	0	1	0
301.09620803999371	273.68869320502608	0	1	0
301.04717303999371	273.57031720502607	0	1	0
301.04716903999372	273.57030320502622	0	1	0
301.02217203999368	273.44463720502608	0	1	0
301.02217203999368	273.31649220502618	0	1	0
301.04716903999372	273.19082620502621	0	1	0
301.04717303999371	273.19081220502608	0	1	0
301.09620403999372	273.07244420502622	0	1	0
301.16739503999372	272.96589620502618	0	1	0
301.2580030399937	272.87528820502621	0	1	0
301.31145303999369	272.83957420502622	0	1	0
301.36454503999369	272.80409920502609	0	1	0
301.41189803999367	272.78448520502621	0	1	0
301.4829190399937	272.75506620502608	0	1	0
301.60859903999369	272.73006520502622	0	1	0
302.31067203999368	272.73006420502622	0	1	0
302.3541590399937	272.71205120502623	0	1	0
302.3721720399937	272.66856420502609	0	1	0
302.3721720399937	271.55256420502621	0	1	0
302.3541590399937	271.50907720502607	0	1	0
302.31067203999368	271.49106420502608	0	1	0
301.60860003999369	271.49106420502608	0	1	0
301.48293303999372	271.46606720502609	0	1	0
301.4829190399937	271.46606320502622	0	1	0
301.36455103999373	271.41703220502609	0	1	0
301.2580030399937	271.34584120502609	0	1	0
301.16739503999372	271.25523320502617	0	1	0
301.09620803999371	271.14869320502618	0	1	0
301.04717303999371	271.03031720502622	0	1	0
301.04716903999372	271.03030320502609	0	1	0
301.02217203999368	270.90463720502618	0	1	0
301.02217203999368	270.77649220502622	0	1	0
301.04716903999372	270.65082620502608	0	1	0
301.04717303999371	270.65081220502623	0	1	0
301.09620403999372	270.53244420502608	0	1	0
301.16739503999372	270.42589620502622	0	1	0
301.2580030399937	270.33528820502607	0	1	0
301.29264803999371	270.31213920502609	0	1	0
301.36454503999369	270.26409920502613	0	1	0
301.41189803999367	270.24448520502608	0	1	0
301.4829190399937	270.21506620502618	0	1	0
301.60859903999369	270.19006520502609	0	1	0
302.31067203999368	270.19006420502609	0	1	0
302.3541590399937	270.17205120502621	0	1	0
302.3721720399937	270.12856420502612	0	1	0
302.3721720399937	269.01256420502608	0	1	0
302.3541590399937	268.96907720502622	0	1	0
302.31067203999368	268.95106420502623	0	1	0
301.60860003999369	268.95106420502623	0	1	0
301.48293303999372	268.92606720502607	0	1	0
301.4829190399937	268.92606320502608	0	1	0
301.36455103999373	268.87703220502613	0	1	0
301.2580030399937	268.80584120502613	0	1	0
301.16739503999372	268.71523320502621	0	1	0
301.09620803999371	268.60869320502621	0	1	0
301.04717303999371	268.49031720502609	0	1	0
301.04716903999372	268.49030320502618	0	1	0
301.02217203999368	268.36463720502621	0	1	0
301.02217203999368	268.23649220502608	0	1	0
301.04716903999372	268.11082620502623	0	1	0
301.04717303999371	268.11081220502609	0	1	0
301.09384603999371	267.99813720502618	0	1	0
301.09620703999371	267.99243720502608	0	1	0
301.16739503999372	267.88589620502609	0	1	0
301.2580030399937	267.79528820502622	0	1	0
301.31145303999369	267.75957420502618	0	1	0
301.36454503999369	267.72409920502622	0	1	0
301.41189803999367	267.70448520502617	0	1	0
301.4829190399937	267.67506620502621	0	1	0
301.60859903999369	267.65006520502618	0	1	0
302.31067203999368	267.65006420502618	0	1	0
302.3541590399937	267.63205120502619	0	1	0
302.3721720399937	267.58856420502622	0	1	0
302.3721720399937	266.47256420502617	0	1	0
302.3541590399937	266.42907720502609	0	1	0
302.31067203999368	266.41106420502621	0	1	0
301.60860003999369	266.41106420502621	0	1	0
301.48293303999372	266.38606720502622	0	1	0
301.4829190399937	266.38606320502618	0	1	0
301.36455103999373	266.33703220502622	0	1	0
301.2580030399937	266.26584120502622	0	1	0
301.16739503999372	266.17523320502619	0	1	0
301.09620803999371	266.06869320502608	0	1	0
301.04717303999371	265.95031720502618	0	1	0
301.04716903999372	265.95030320502622	0	1	0
301.02217203999368	265.82463720502608	0	1	0
301.02217203999368	265.69649220502617	0	1	0
301.04716903999372	265.57082620502621	0	1	0
301.04717303999371	265.57081220502619	0	1	0
301.09620403999372	265.45244420502621	0	1	0
301.16739503999372	265.34589620502618	0	1	0
301.2580030399937	265.25528820502609	0	1	0
301.31145303999369	265.21957420502622	0	1	0
301.36454503999369	265.18409920502609	0	1	0
301.41189803999367	265.16448520502621	0	1	0
301.4829190399937	265.13506620502608	0	1	0
301.60859903999369	265.11006520502622	0	1	0
302.31067203999368	265.11006420502622	0	1	0
302.3541590399937	265.09205120502622	0	1	0
302.3721720399937	265.04856420502608	0	1	0
302.3721720399937	262.47256420502617	0	1	0
302.3541590399937	262.42907720502609	0	1	0
302.31067203999368	262.41106420502621	0	1	0
288.65467203999373	262.41106420502621	0	1	0
288.6111850399937	262.42907720502609	0	1	0
288.5931720399937	262.47256420502617	0	1	0
288.5931720399937	262.67463620502622	0	1	0
288.56817403999372	262.80030320502613	0	1	0
288.56817003999367	262.80031720502609	0	1	0
288.53463903999369	262.88126520502612	0	1	0
288.51913703999372	262.91869120502622	0	1	0
288.44794803999372	263.02523320502621	0	1	0
288.35734103999368	263.11584020502619	0	1	0
288.25080003999369	263.18702820502608	0	1	0
288.13242403999368	263.23606320502608	0	1	0
288.13241003999372	263.23606720502619	0	1	0
288.00674403999369	263.26106420502617	0	1	0
287.87860303999372	263.26106420502617	0	1	0
287.75293303999371	263.23606720502619	0	1	0
287.75291903999369	263.23606320502608	0	1	0
287.63455103999371	263.18703220502618	0	1	0
287.52800303999368	263.11584120502619	0	1	0
287.4373950399937	263.02523320502621	0	1	0
287.36620803999369	262.91869320502622	0	1	0
287.36448903999371	262.91454420502617	0	1	0
287.33120403999368	262.88126220502608	0	1	0
287.28413403999372	262.88126520502612	0	1	0
287.25085503999372	262.91454420502617	0	1	0
287.24913903999368	262.91868620502612	0	1	0
287.17794803999368	263.02523320502621	0	1	0
287.0873410399937	263.11584020502619	0	1	0
286.98080003999371	263.18702820502608	0	1	0
286.8624240399937	263.23606320502608	0	1	0
286.86241003999368	263.23606720502619	0	1	0
286.73674403999371	263.26106420502617	0	1	0
286.60860303999368	263.26106420502617	0	1	0
286.48293303999372	263.23606720502619	0	1	0
286.4829190399937	263.23606320502608	0	1	0
286.36455103999373	263.18703220502618	0	1	0
286.2580030399937	263.11584120502619	0	1	0
286.16739503999372	263.02523320502621	0	1	0
286.09620803999371	262.91869320502622	0	1	0
286.04717303999371	262.80031720502609	0	1	0
286.04716903999372	262.80030320502613	0	1	0
286.02217203999368	262.67463720502622	0	1	0
286.02217203999368	262.47256420502617	0	1	0
286.00415903999368	262.42907720502609	0	1	0
285.96067203999371	262.41106420502621	0	1	0
283.03467203999372	262.41106420502621	0	1	0
282.9911850399937	262.42907720502609	0	1	0
282.9731720399937	262.47256420502617	0	1	0
282.9731720399937	263.64056420502618	0	1	0
282.9731720399937	264.31056420502608	0	1	0
282.9731720399937	267.69056420502608	0	1	0
282.9731720399937	269.95056420502613	0	1	0
282.9731720399937	271.20056420502613	0	1	0
282.9731720399937	272.11056420502621	0	1	0
282.9731720399937	274.30056420502609	0	1	0
282.9731720399937	277.69056420502608	0	1	0
282.9731720399937	281.74856420502613	0	1	0
282.9911850399937	281.79205120502621	0	1	0
283.03467203999372	281.81006420502621	0	1	0
302.31067203999368	281.81006420502621	0	1	0
[NumSegments] = 269
0	1	-1	2	0	0	0
1	2	-1	2	0	0	0
2	3	-1	2	0	0	0
3	4	-1	2	0	0	0
4	5	-1	2	0	0	0
5	6	-1	2	0	0	0
6	7	-1	2	0	0	0
7	8	-1	2	0	0	0
8	9	-1	2	0	0	0
9	10	-1	2	0	0	0
11	12	-1	2	0	0	0
12	0	-1	2	0	0	0
13	14	-1	0	0	1	3
14	15	-1	0	0	1	3
15	16	-1	0	0	1	3
16	17	-1	0	0	1	3
17	18	-1	0	0	1	3
18	19	-1	0	0	1	3
19	20	-1	0	0	1	3
20	21	-1	0	0	1	3
21	22	-1	0	0	1	3
22	23	-1	0	0	1	3
23	24	-1	0	0	1	3
24	25	-1	0	0	1	3
25	26	-1	0	0	1	3
26	13	-1	0	0	1	3
27	28	-1	2	0	1	0
28	29	-1	2	0	1	0
29	30	-1	2	0	1	0
30	31	-1	2	0	1	0
31	32	-1	2	0	1	0
32	33	-1	2	0	1	0
33	34	-1	2	0	1	0
34	35	-1	2	0	1	0
35	36	-1	2	0	1	0
36	37	-1	2	0	1	0
37	38	-1	2	0	1	0
38	39	-1	2	0	1	0
39	40	-1	2	0	1	0
40	27	-1	2	0	1	0
41	42	-1	0	0	1	0
42	43	-1	0	0	1	0
43	44	-1	0	0	1	0
44	45	-1	0	0	1	0
45	46	-1	0	0	1	0
46	47	-1	0	0	1	0
47	48	-1	0	0	1	0
48	49	-1	0	0	1	0
49	50	-1	0	0	1	0
50	51	-1	0	0	1	0
51	52	-1	0	0	1	0
52	53	-1	0	0	1	0
53	54	-1	0	0	1	0
54	55	-1	0	0	1	0
55	56	-1	0	0	1	0
56	57	-1	0	0	1	0
57	58	-1	0	0	1	0
58	59	-1	0	0	1	0
59	60	-1	0	0	1	0
60	61	-1	0	0	1	0
61	62	-1	0	0	1	0
62	63	-1	0	0	1	0
63	64	-1	0	0	1	0
64	65	-1	0	0	1	0
65	66	-1	0	0	1	0
66	67	-1	0	0	1	0
67	68	-1	0	0	1	0
68	69	-1	0	0	1	0
69	70	-1	0	0	1	0
70	71	-1	0	0	1	0
71	72	-1	0	0	1	0
72	73	-1	0	0	1	0
73	74	-1	0	0	1	0
74	75	-1	0	0	1	0
75	76	-1	0	0	1	0
76	77	-1	0	0	1	0
77	78	-1	0	0	1	0
78	79	-1	0	0	1	0
79	80	-1	0	0	1	0
80	81	-1	0	0	1	0
81	82	-1	0	0	1	0
82	83	-1	0	0	1	0
83	84	-1	0	0	1	0
84	85	-1	0	0	1	0
85	86	-1	0	0	1	0
86	87	-1	0	0	1	0
87	88	-1	0	0	1	0
88	89	-1	0	0	1	0
89	90	-1	0	0	1	0
90	91	-1	0	0	1	0
91	92	-1	0	0	1	0
92	93	-1	0	0	1	0
93	94	-1	0	0	1	0
94	95	-1	0	0	1	0
95	96	-1	0	0	1	0
96	97	-1	0	0	1	0
97	98	-1	0	0	1	0
98	99	-1	0	0	1	0
99	100	-1	0	0	1	0
100	101	-1	0	0	1	0
101	102	-1	0	0	1	0
102	103	-1	0	0	1	0
103	104	-1	0	0	1	0
104	105	-1	0	0	1	0
105	106	-1	0	0	1	0
106	107	-1	0	0	1	0
107	108	-1	0	0	1	0
108	109	-1	0	0	1	0
109	110	-1	0	0	1	0
110	111	-1	0	0	1	0
111	112	-1	0	0	1	0
112	113	-1	0	0	1	0
113	114	-1	0	0	1	0
114	115	-1	0	0	1	0
115	116	-1	0	0	1	0
116	117	-1	0	0	1	0
117	118	-1	0	0	1	0
118	119	-1	0	0	1	0
119	120	-1	0	0	1	0
120	121	-1	0	0	1	0
121	122	-1	0	0	1	0
122	123	-1	0	0	1	0
123	124	-1	0	0	1	0
124	125	-1	0	0	1	0
125	126	-1	0	0	1	0
126	127	-1	0	0	1	0
127	128	-1	0	0	1	0
128	129	-1	0	0	1	0
129	130	-1	0	0	1	0
130	131	-1	0	0	1	0
131	132	-1	0	0	1	0
132	133	-1	0	0	1	0
133	134	-1	0	0	1	0
134	135	-1	0	0	1	0
135	136	-1	0	0	1	0
136	137	-1	0	0	1	0
137	138	-1	0	0	1	0
138	139	-1	0	0	1	0
139	140	-1	0	0	1	0
140	141	-1	0	0	1	0
141	142	-1	0	0	1	0
142	143	-1	0	0	1	0
143	144	-1	0	0	1	0
144	145	-1	0	0	1	0
145	146	-1	0	0	1	0
146	147	-1	0	0	1	0
147	148	-1	0	0	1	0
148	149	-1	0	0	1	0
149	150	-1	0	0	1	0
150	151	-1	0	0	1	0
151	152	-1	0	0	1	0
152	153	-1	0	0	1	0
153	154	-1	0	0	1	0
154	155	-1	0	0	1	0
155	156	-1	0	0	1	0
156	157	-1	0	0	1	0
157	158	-1	0	0	1	0
158	159	-1	0	0	1	0
159	160	-1	0	0	1	0
160	161	-1	0	0	1	0
161	162	-1	0	0	1	0
162	163	-1	0	0	1	0
163	164	-1	0	0	1	0
164	165	-1	0	0	1	0
165	166	-1	0	0	1	0
166	167	-1	0	0	1	0
167	168	-1	0	0	1	0
168	169	-1	0	0	1	0
169	170	-1	0	0	1	0
170	171	-1	0	0	1	0
171	172	-1	0	0	1	0
172	173	-1	0	0	1	0
173	174	-1	0	0	1	0
174	175	-1	0	0	1	0
175	176	-1	0	0	1	0
176	177	-1	0	0	1	0
177	178	-1	0	0	1	0
178	179	-1	0	0	1	0
179	180	-1	0	0	1	0
180	181	-1	0	0	1	0
181	182	-1	0	0	1	0
182	183	-1	0	0	1	0
183	184	-1	0	0	1	0
184	185	-1	0	0	1	0
185	186	-1	0	0	1	0
186	187	-1	0	0	1	0
187	188	-1	0	0	1	0
188	189	-1	0	0	1	0
189	190	-1	0	0	1	0
190	191	-1	0	0	1	0
191	192	-1	0	0	1	0
192	193	-1	0	0	1	0
193	194	-1	0	0	1	0
194	195	-1	0	0	1	0
195	196	-1	0	0	1	0
196	197	-1	0	0	1	0
197	198	-1	0	0	1	0
198	199	-1	0	0	1	0
199	200	-1	0	0	1	0
200	201	-1	0	0	1	0
201	202	-1	0	0	1	0
202	203	-1	0	0	1	0
203	204	-1	0	0	1	0
204	205	-1	0	0	1	0
205	206	-1	0	0	1	0
206	207	-1	0	0	1	0
207	208	-1	0	0	1	0
208	209	-1	0	0	1	0
209	210	-1	1	0	1	0
210	211	-1	1	0	1	0
211	212	-1	1	0	1	0
212	213	-1	1	0	1	0
213	214	-1	0	0	1	0
214	215	-1	1	0	1	0
215	216	-1	1	0	1	0
216	217	-1	1	0	1	0
217	218	-1	1	0	1	0
218	219	-1	1	0	1	0
219	220	-1	1	0	1	0
220	221	-1	0	0	1	0
221	222	-1	1	0	1	0
222	223	-1	1	0	1	0
223	224	-1	1	0	1	0
224	225	-1	0	0	1	0
225	226	-1	1	0	1	0
226	227	-1	1	0	1	0
227	228	-1	1	0	1	0
228	229	-1	1	0	1	0
229	230	-1	0	0	1	0
230	231	-1	1	0	1	0
231	232	-1	1	0	1	0
232	233	-1	1	0	1	0
233	234	-1	0	0	1	0
234	235	-1	1	0	1	0
235	236	-1	1	0	1	0
236	237	-1	1	0	1	0
237	238	-1	1	0	1	0
238	239	-1	0	0	1	0
239	240	-1	1	0	1	0
240	241	-1	1	0	1	0
241	242	-1	1	0	1	0
242	243	-1	0	0	1	0
243	244	-1	1	0	1	0
244	245	-1	1	0	1	0
245	246	-1	1	0	1	0
246	247	-1	1	0	1	0
247	248	-1	1	0	1	0
248	249	-1	0	0	1	0
249	250	-1	1	0	1	0
250	251	-1	1	0	1	0
251	252	-1	1	0	1	0
252	253	-1	1	0	1	0
253	254	-1	0	0	1	0
254	255	-1	0	0	1	0
255	256	-1	0	0	1	0
256	257	-1	0	0	1	0
257	258	-1	0	0	1	0
258	259	-1	0	0	1	0
259	260	-1	0	0	1	0
260	261	-1	0	0	1	0
261	262	-1	0	0	1	0
262	263	-1	0	0	1	0
263	264	-1	0	0	1	0
264	265	-1	0	0	1	0
265	266	-1	0	0	1	0
266	267	-1	0	0	1	0
267	268	-1	0	0	1	0
268	41	-1	0	0	1	0
10	11	-1	2	0	0	0
[NumArcSegments] = 0
[NumHoles] = 0
[NumBlockLabels] = 2
294.79000000000002	272.51999999999998	1	0.10000000000000001	0	0
305.06999999999999	271.48000000000002	2	-1	0	2
