[Format]      =  1
[Precision]   =  1e-008
[Frequency]   =  60
[MinAngle]    =  30
[DoSmartMesh] =  1
[Depth]       =  1
[LengthUnits] =  inches
[ProblemType] =  planar
[Coordinates] =  cartesian
[Comment]     =  "Add comments here."
[PointProps]   = 0
[BdryProps]   = 0
[BlockProps]  = 0
[ConductorProps]  = 0
[NumPoints] = 14867
93.337592000000001	-69.788060000000002	0	1	0
93.450631000000001	-69.853323000000003	0	1	0
93.542926999999992	-69.945618999999994	0	1	0
93.608189999999993	-70.058657999999994	0	1	0
93.641971999999996	-70.184736999999998	0	1	0
93.646249999999995	-70.25	0	1	0
93.646249999999995	-71.25	0	1	0
93.641971999999996	-71.315263000000002	0	1	0
93.608189999999993	-71.441341999999992	0	1	0
93.542926999999992	-71.554380999999992	0	1	0
93.450631000000001	-71.646676999999997	0	1	0
93.337592000000001	-71.711939999999998	0	1	0
93.211512999999997	-71.745722000000001	0	1	0
93.080986999999993	-71.745722000000001	0	1	0
92.954907999999989	-71.711939999999998	0	1	0
92.841869000000003	-71.646676999999997	0	1	0
92.749572999999998	-71.554380999999992	0	1	0
92.684309999999996	-71.441341999999992	0	1	0
92.650527999999994	-71.315263000000002	0	1	0
92.646249999999995	-71.25	0	1	0
92.646249999999995	-70.25	0	1	0
92.650527999999994	-70.184736999999998	0	1	0
92.684309999999996	-70.058657999999994	0	1	0
92.749572999999998	-69.945618999999994	0	1	0
92.841869000000003	-69.853323000000003	0	1	0
92.954907999999989	-69.788060000000002	0	1	0
93.080986999999993	-69.754277999999999	0	1	0
93.211512999999997	-69.754277999999999	0	1	0
94.607591999999997	-69.788060000000002	0	1	0
94.720630999999997	-69.853323000000003	0	1	0
94.812927000000002	-69.945618999999994	0	1	0
94.878189999999989	-70.058657999999994	0	1	0
94.911971999999992	-70.184736999999998	0	1	0
94.916249999999991	-70.25	0	1	0
94.916249999999991	-71.25	0	1	0
94.911971999999992	-71.315263000000002	0	1	0
94.878189999999989	-71.441341999999992	0	1	0
94.812927000000002	-71.554380999999992	0	1	0
94.720630999999997	-71.646676999999997	0	1	0
94.607591999999997	-71.711939999999998	0	1	0
94.481512999999993	-71.745722000000001	0	1	0
94.350986999999989	-71.745722000000001	0	1	0
94.224907999999999	-71.711939999999998	0	1	0
94.111868999999999	-71.646676999999997	0	1	0
94.019572999999994	-71.554380999999992	0	1	0
93.954309999999992	-71.441341999999992	0	1	0
93.92052799999999	-71.315263000000002	0	1	0
93.916249999999991	-71.25	0	1	0
93.916249999999991	-70.25	0	1	0
93.92052799999999	-70.184736999999998	0	1	0
93.954309999999992	-70.058657999999994	0	1	0
94.019572999999994	-69.945618999999994	0	1	0
94.111868999999999	-69.853323000000003	0	1	0
94.224907999999999	-69.788060000000002	0	1	0
94.350986999999989	-69.754277999999999	0	1	0
94.481512999999993	-69.754277999999999	0	1	0
98.010947999999999	-69.063633999999993	0	1	0
98.06644399999999	-69.133223000000001	0	1	0
98.086249999999993	-69.219999999999999	0	1	0
98.06644399999999	-69.306776999999997	0	1	0
98.010947999999999	-69.37636599999999	0	1	0
97.930753999999993	-69.414985999999999	0	1	0
97.841746000000001	-69.414985999999999	0	1	0
97.761551999999995	-69.37636599999999	0	1	0
97.70605599999999	-69.306776999999997	0	1	0
97.686250000000001	-69.219999999999999	0	1	0
97.70605599999999	-69.133223000000001	0	1	0
97.761551999999995	-69.063633999999993	0	1	0
97.841746000000001	-69.025013999999999	0	1	0
97.930753999999993	-69.025013999999999	0	1	0
102.030948	-68.393633999999992	0	1	0
102.086444	-68.463222999999999	0	1	0
102.10625	-68.549999999999997	0	1	0
102.086444	-68.636776999999995	0	1	0
102.030948	-68.706366000000003	0	1	0
101.950754	-68.744985999999997	0	1	0
101.861746	-68.744985999999997	0	1	0
101.781552	-68.706366000000003	0	1	0
101.726056	-68.636776999999995	0	1	0
101.70625	-68.549999999999997	0	1	0
101.726056	-68.463222999999999	0	1	0
101.781552	-68.393633999999992	0	1	0
101.861746	-68.355013999999997	0	1	0
101.950754	-68.355013999999997	0	1	0
105.260948	-65.193634000000003	0	1	0
105.316444	-65.263222999999996	0	1	0
105.33625000000001	-65.349999999999994	0	1	0
105.316444	-65.436776999999992	0	1	0
105.260948	-65.506366	0	1	0
105.18075399999999	-65.544985999999994	0	1	0
105.091746	-65.544985999999994	0	1	0
105.01155199999999	-65.506366	0	1	0
104.956056	-65.436776999999992	0	1	0
104.93625	-65.349999999999994	0	1	0
104.956056	-65.263222999999996	0	1	0
105.01155199999999	-65.193634000000003	0	1	0
105.091746	-65.155013999999994	0	1	0
105.18075399999999	-65.155013999999994	0	1	0
97.210948000000002	-65.013633999999996	0	1	0
97.266443999999993	-65.083223000000004	0	1	0
97.286249999999995	-65.170000000000002	0	1	0
97.266443999999993	-65.256777	0	1	0
97.210948000000002	-65.326365999999993	0	1	0
97.130753999999996	-65.364986000000002	0	1	0
97.041745999999989	-65.364986000000002	0	1	0
96.961551999999998	-65.326365999999993	0	1	0
96.906055999999992	-65.256777	0	1	0
96.88624999999999	-65.170000000000002	0	1	0
96.906055999999992	-65.083223000000004	0	1	0
96.961551999999998	-65.013633999999996	0	1	0
97.041745999999989	-64.975014000000002	0	1	0
97.130753999999996	-64.975014000000002	0	1	0
103.83094800000001	-62.753633999999998	0	1	0
103.886444	-62.823222999999999	0	1	0
103.90625	-62.909999999999997	0	1	0
103.886444	-62.996776999999987	0	1	0
103.83094800000001	-63.066366000000002	0	1	0
103.750754	-63.104985999999997	0	1	0
103.66174599999999	-63.104985999999997	0	1	0
103.581552	-63.066366000000002	0	1	0
103.526056	-62.996776999999987	0	1	0
103.50624999999999	-62.909999999999997	0	1	0
103.526056	-62.823222999999999	0	1	0
103.581552	-62.753633999999998	0	1	0
103.66174599999999	-62.715013999999996	0	1	0
103.750754	-62.715013999999996	0	1	0
98.180948000000001	-61.503633999999998	0	1	0
98.236443999999992	-61.573222999999999	0	1	0
98.256249999999994	-61.659999999999997	0	1	0
98.236443999999992	-61.746776999999987	0	1	0
98.180948000000001	-61.816366000000002	0	1	0
98.100753999999995	-61.854985999999997	0	1	0
98.011746000000002	-61.854985999999997	0	1	0
97.931551999999996	-61.816366000000002	0	1	0
97.876055999999991	-61.746776999999987	0	1	0
97.856249999999989	-61.659999999999997	0	1	0
97.876055999999991	-61.573222999999999	0	1	0
97.931551999999996	-61.503633999999998	0	1	0
98.011746000000002	-61.465013999999996	0	1	0
98.100753999999995	-61.465013999999996	0	1	0
96.02094799999999	-60.593633999999987	0	1	0
96.076443999999995	-60.663223000000002	0	1	0
96.096249999999998	-60.75	0	1	0
96.076443999999995	-60.836776999999998	0	1	0
96.02094799999999	-60.906365999999998	0	1	0
95.940753999999998	-60.944986	0	1	0
95.851745999999991	-60.944986	0	1	0
95.771552	-60.906365999999998	0	1	0
95.716055999999995	-60.836776999999998	0	1	0
95.696249999999992	-60.75	0	1	0
95.716055999999995	-60.663223000000002	0	1	0
95.771552	-60.593633999999987	0	1	0
95.851745999999991	-60.555014	0	1	0
95.940753999999998	-60.555014	0	1	0
101.740948	-58.403633999999997	0	1	0
101.79644399999999	-58.473222999999997	0	1	0
101.81625	-58.560000000000002	0	1	0
101.79644399999999	-58.646777	0	1	0
101.740948	-58.716366000000001	0	1	0
101.660754	-58.754986000000002	0	1	0
101.571746	-58.754986000000002	0	1	0
101.491552	-58.716366000000001	0	1	0
101.43605599999999	-58.646777	0	1	0
101.41625000000001	-58.560000000000002	0	1	0
101.43605599999999	-58.473222999999997	0	1	0
101.491552	-58.403633999999997	0	1	0
101.571746	-58.365014000000002	0	1	0
101.660754	-58.365014000000002	0	1	0
97.210948000000002	-55.013634000000003	0	1	0
97.266443999999993	-55.083222999999997	0	1	0
97.286249999999995	-55.169999999999987	0	1	0
97.266443999999993	-55.256777	0	1	0
97.210948000000002	-55.326366	0	1	0
97.130753999999996	-55.364985999999988	0	1	0
97.041745999999989	-55.364985999999988	0	1	0
96.961551999999998	-55.326366	0	1	0
96.906055999999992	-55.256777	0	1	0
96.88624999999999	-55.169999999999987	0	1	0
96.906055999999992	-55.083222999999997	0	1	0
96.961551999999998	-55.013634000000003	0	1	0
97.041745999999989	-54.975013999999987	0	1	0
97.130753999999996	-54.975013999999987	0	1	0
93.337592000000001	-49.788059999999987	0	1	0
93.450631000000001	-49.853323000000003	0	1	0
93.542926999999992	-49.945619000000001	0	1	0
93.608189999999993	-50.058658000000001	0	1	0
93.641971999999996	-50.184736999999998	0	1	0
93.646249999999995	-50.25	0	1	0
93.646249999999995	-51.0505	0	1	0
93.916249999999991	-51.0505	0	1	0
93.916249999999991	-50.25	0	1	0
93.92052799999999	-50.184736999999998	0	1	0
93.954309999999992	-50.058658000000001	0	1	0
94.019572999999994	-49.945619000000001	0	1	0
94.111868999999999	-49.853323000000003	0	1	0
94.224907999999999	-49.788059999999987	0	1	0
94.350986999999989	-49.754277999999999	0	1	0
94.481512999999993	-49.754277999999999	0	1	0
94.607591999999997	-49.788059999999987	0	1	0
94.720630999999997	-49.853323000000003	0	1	0
94.812927000000002	-49.945619000000001	0	1	0
94.878189999999989	-50.058658000000001	0	1	0
94.911971999999992	-50.184736999999998	0	1	0
94.916249999999991	-50.25	0	1	0
94.916249999999991	-51.0505	0	1	0
95.186250000000001	-51.0505	0	1	0
95.186250000000001	-50.25	0	1	0
95.190528	-50.184736999999998	0	1	0
95.224310000000003	-50.058658000000001	0	1	0
95.28957299999999	-49.945619000000001	0	1	0
95.381868999999995	-49.853323000000003	0	1	0
95.494907999999995	-49.788059999999987	0	1	0
95.620987	-49.754277999999999	0	1	0
95.751513000000003	-49.754277999999999	0	1	0
95.877591999999993	-49.788059999999987	0	1	0
95.990630999999993	-49.853323000000003	0	1	0
96.082926999999998	-49.945619000000001	0	1	0
96.14819	-50.058658000000001	0	1	0
96.181972000000002	-50.184736999999998	0	1	0
96.186250000000001	-50.25	0	1	0
96.186250000000001	-51.0505	0	1	0
96.456249999999997	-51.0505	0	1	0
96.456249999999997	-50.25	0	1	0
96.460527999999996	-50.184736999999998	0	1	0
96.494309999999999	-50.058658000000001	0	1	0
96.559573	-49.945619000000001	0	1	0
96.651868999999991	-49.853323000000003	0	1	0
96.764907999999991	-49.788059999999987	0	1	0
96.890986999999996	-49.754277999999999	0	1	0
97.021512999999999	-49.754277999999999	0	1	0
97.147591999999989	-49.788059999999987	0	1	0
97.260630999999989	-49.853323000000003	0	1	0
97.352926999999994	-49.945619000000001	0	1	0
97.418189999999996	-50.058658000000001	0	1	0
97.451971999999998	-50.184736999999998	0	1	0
97.456249999999997	-50.25	0	1	0
97.456249999999997	-51.0505	0	1	0
108.78425	-51.0505	0	1	0
108.827737	-51.068513000000003	0	1	0
108.84575	-51.111999999999988	0	1	0
108.84575	-52.630000000000003	0	1	0
110.14624999999999	-52.630000000000003	0	1	0
110.211513	-52.634277999999988	0	1	0
110.337592	-52.668059999999997	0	1	0
110.450631	-52.733322999999999	0	1	0
110.54292700000001	-52.825619000000003	0	1	0
110.60818999999999	-52.938657999999997	0	1	0
110.641972	-53.064737000000001	0	1	0
110.641972	-53.195262999999997	0	1	0
110.60818999999999	-53.321341999999987	0	1	0
110.54292700000001	-53.434380999999988	0	1	0
110.450631	-53.526676999999999	0	1	0
110.337592	-53.591940000000001	0	1	0
110.211513	-53.625722000000003	0	1	0
110.14624999999999	-53.630000000000003	0	1	0
108.84575	-53.630000000000003	0	1	0
108.84575	-53.688000000000002	0	1	0
108.827737	-53.731486999999987	0	1	0
108.78425	-53.749499999999998	0	1	0
108.082178	-53.749499999999998	0	1	0
107.95651100000001	-53.774496999999997	0	1	0
107.956497	-53.774501000000001	0	1	0
107.838129	-53.823532	0	1	0
107.73158100000001	-53.894722999999999	0	1	0
107.640973	-53.985331000000002	0	1	0
107.56978599999999	-54.091870999999998	0	1	0
107.520751	-54.210247000000003	0	1	0
107.520747	-54.210261000000003	0	1	0
107.49575	-54.335926999999998	0	1	0
107.49575	-54.464071999999987	0	1	0
107.520747	-54.589737999999997	0	1	0
107.520751	-54.589751999999997	0	1	0
107.569782	-54.708120000000001	0	1	0
107.640973	-54.814667999999998	0	1	0
107.73158100000001	-54.905276000000001	0	1	0
107.785031	-54.940989999999999	0	1	0
107.838123	-54.976464999999997	0	1	0
107.885476	-54.996078999999988	0	1	0
107.956497	-55.025497999999999	0	1	0
108.082177	-55.050498999999988	0	1	0
108.78425	-55.0505	0	1	0
108.827737	-55.068513000000003	0	1	0
108.84575	-55.111999999999988	0	1	0
108.84575	-55.169999999999987	0	1	0
110.14624999999999	-55.169999999999987	0	1	0
110.211513	-55.174278000000001	0	1	0
110.337592	-55.208060000000003	0	1	0
110.450631	-55.273322999999998	0	1	0
110.54292700000001	-55.365619000000002	0	1	0
110.60818999999999	-55.478658000000003	0	1	0
110.641972	-55.604737	0	1	0
110.641972	-55.735263000000003	0	1	0
110.60818999999999	-55.861342	0	1	0
110.54292700000001	-55.974380999999987	0	1	0
110.450631	-56.066676999999999	0	1	0
110.337592	-56.13194	0	1	0
110.211513	-56.165722000000002	0	1	0
110.14624999999999	-56.169999999999987	0	1	0
108.84575	-56.169999999999987	0	1	0
108.84575	-56.227999999999987	0	1	0
108.827737	-56.271487	0	1	0
108.78425	-56.289499999999997	0	1	0
108.082178	-56.289499999999997	0	1	0
107.95651100000001	-56.314497000000003	0	1	0
107.956497	-56.314501	0	1	0
107.838129	-56.363531999999999	0	1	0
107.73158100000001	-56.434722999999998	0	1	0
107.640973	-56.525330999999987	0	1	0
107.56978599999999	-56.631870999999997	0	1	0
107.520751	-56.750246999999987	0	1	0
107.520747	-56.750260999999988	0	1	0
107.49575	-56.875926999999997	0	1	0
107.49575	-57.004072000000001	0	1	0
107.520747	-57.129738000000003	0	1	0
107.520751	-57.129752000000003	0	1	0
107.569782	-57.24812	0	1	0
107.640973	-57.354667999999997	0	1	0
107.73158100000001	-57.445276	0	1	0
107.785031	-57.480989999999998	0	1	0
107.838123	-57.516464999999997	0	1	0
107.885476	-57.536079000000001	0	1	0
107.956497	-57.565497999999998	0	1	0
108.082177	-57.590498999999987	0	1	0
108.78425	-57.590499999999999	0	1	0
108.827737	-57.608512999999988	0	1	0
108.84575	-57.651999999999987	0	1	0
108.84575	-57.710000000000001	0	1	0
110.14624999999999	-57.710000000000001	0	1	0
110.211513	-57.714278	0	1	0
110.337592	-57.748060000000002	0	1	0
110.450631	-57.813322999999997	0	1	0
110.54292700000001	-57.905618999999987	0	1	0
110.60818999999999	-58.018657999999988	0	1	0
110.641972	-58.144736999999999	0	1	0
110.641972	-58.275263000000002	0	1	0
110.60818999999999	-58.401342	0	1	0
110.54292700000001	-58.514381	0	1	0
110.450631	-58.606676999999998	0	1	0
110.337592	-58.671939999999999	0	1	0
110.211513	-58.705721999999987	0	1	0
110.14624999999999	-58.710000000000001	0	1	0
108.84575	-58.710000000000001	0	1	0
108.84575	-58.768000000000001	0	1	0
108.827737	-58.811487	0	1	0
108.78425	-58.829500000000003	0	1	0
108.082178	-58.829500000000003	0	1	0
107.95651100000001	-58.854496999999988	0	1	0
107.956497	-58.854500999999999	0	1	0
107.838129	-58.903531999999998	0	1	0
107.73158100000001	-58.974722999999997	0	1	0
107.640973	-59.065331	0	1	0
107.56978599999999	-59.171871000000003	0	1	0
107.520751	-59.290247000000001	0	1	0
107.520747	-59.290260999999987	0	1	0
107.49575	-59.415927000000003	0	1	0
107.49575	-59.544072	0	1	0
107.520747	-59.669738000000002	0	1	0
107.520751	-59.669752000000003	0	1	0
107.569782	-59.788119999999999	0	1	0
107.640973	-59.894668000000003	0	1	0
107.73158100000001	-59.985275999999999	0	1	0
107.785031	-60.020989999999998	0	1	0
107.838123	-60.056465000000003	0	1	0
107.885476	-60.076079	0	1	0
107.956497	-60.105497999999997	0	1	0
108.082177	-60.130499	0	1	0
108.78425	-60.130499999999998	0	1	0
108.827737	-60.148512999999987	0	1	0
108.84575	-60.192	0	1	0
108.84575	-60.25	0	1	0
110.14624999999999	-60.25	0	1	0
110.211513	-60.254277999999999	0	1	0
110.337592	-60.288059999999987	0	1	0
110.450631	-60.353323000000003	0	1	0
110.54292700000001	-60.445619000000001	0	1	0
110.60818999999999	-60.558657999999987	0	1	0
110.641972	-60.684736999999998	0	1	0
110.641972	-60.815262999999987	0	1	0
110.60818999999999	-60.941341999999999	0	1	0
110.54292700000001	-61.054380999999999	0	1	0
110.450631	-61.146676999999997	0	1	0
110.337592	-61.211939999999998	0	1	0
110.211513	-61.245722000000001	0	1	0
110.14624999999999	-61.25	0	1	0
108.84575	-61.25	0	1	0
108.84575	-61.308	0	1	0
108.827737	-61.351486999999999	0	1	0
108.78425	-61.369500000000002	0	1	0
108.082178	-61.369500000000002	0	1	0
107.95651100000001	-61.394496999999987	0	1	0
107.956497	-61.394500999999998	0	1	0
107.838129	-61.443531999999998	0	1	0
107.73158100000001	-61.514722999999996	0	1	0
107.640973	-61.605331	0	1	0
107.56978599999999	-61.711871000000002	0	1	0
107.520751	-61.830247	0	1	0
107.520747	-61.830261	0	1	0
107.49575	-61.955927000000003	0	1	0
107.49575	-62.084071999999999	0	1	0
107.520747	-62.209737999999987	0	1	0
107.520751	-62.209751999999988	0	1	0
107.569782	-62.328119999999998	0	1	0
107.640973	-62.434667999999988	0	1	0
107.73158100000001	-62.525275999999998	0	1	0
107.766226	-62.548424999999988	0	1	0
107.838123	-62.596464999999988	0	1	0
107.885476	-62.616078999999999	0	1	0
107.956497	-62.645498000000003	0	1	0
108.082177	-62.670499	0	1	0
108.78425	-62.670499999999997	0	1	0
108.827737	-62.688513	0	1	0
108.84575	-62.731999999999999	0	1	0
108.84575	-62.789999999999999	0	1	0
110.14624999999999	-62.789999999999999	0	1	0
110.211513	-62.794277999999998	0	1	0
110.337592	-62.828060000000001	0	1	0
110.450631	-62.893323000000002	0	1	0
110.54292700000001	-62.985619	0	1	0
110.60818999999999	-63.098658	0	1	0
110.641972	-63.224736999999998	0	1	0
110.641972	-63.355262999999987	0	1	0
110.60818999999999	-63.481341999999998	0	1	0
110.54292700000001	-63.594380999999998	0	1	0
110.450631	-63.686677000000003	0	1	0
110.337592	-63.751939999999998	0	1	0
110.211513	-63.785722	0	1	0
110.14624999999999	-63.789999999999999	0	1	0
108.84575	-63.789999999999999	0	1	0
108.84575	-63.847999999999999	0	1	0
108.827737	-63.891486999999998	0	1	0
108.78425	-63.909499999999987	0	1	0
108.082178	-63.909499999999987	0	1	0
107.95651100000001	-63.934497	0	1	0
107.956497	-63.934500999999997	0	1	0
107.838129	-63.983531999999997	0	1	0
107.73158100000001	-64.054722999999996	0	1	0
107.640973	-64.145330999999999	0	1	0
107.56978599999999	-64.251870999999994	0	1	0
107.520751	-64.370246999999992	0	1	0
107.520747	-64.370260999999999	0	1	0
107.49575	-64.495926999999995	0	1	0
107.49575	-64.624071999999998	0	1	0
107.520747	-64.749737999999994	0	1	0
107.520751	-64.749752000000001	0	1	0
107.567424	-64.862426999999997	0	1	0
107.569785	-64.868127000000001	0	1	0
107.640973	-64.974667999999994	0	1	0
107.73158100000001	-65.065275999999997	0	1	0
107.785031	-65.100989999999996	0	1	0
107.838123	-65.136465000000001	0	1	0
107.885476	-65.156078999999991	0	1	0
107.956497	-65.185497999999995	0	1	0
108.082177	-65.210498999999999	0	1	0
108.78425	-65.210499999999996	0	1	0
108.827737	-65.228512999999992	0	1	0
108.84575	-65.271999999999991	0	1	0
108.84575	-65.329999999999998	0	1	0
110.14624999999999	-65.329999999999998	0	1	0
110.211513	-65.334277999999998	0	1	0
110.337592	-65.36806	0	1	0
110.450631	-65.433323000000001	0	1	0
110.54292700000001	-65.525618999999992	0	1	0
110.60818999999999	-65.638657999999992	0	1	0
110.641972	-65.764736999999997	0	1	0
110.641972	-65.895263	0	1	0
110.60818999999999	-66.02134199999999	0	1	0
110.54292700000001	-66.134380999999991	0	1	0
110.450631	-66.226676999999995	0	1	0
110.337592	-66.291939999999997	0	1	0
110.211513	-66.325721999999999	0	1	0
110.14624999999999	-66.329999999999998	0	1	0
108.84575	-66.329999999999998	0	1	0
108.84575	-66.387999999999991	0	1	0
108.827737	-66.43148699999999	0	1	0
108.78425	-66.4495	0	1	0
108.082178	-66.4495	0	1	0
107.95651100000001	-66.474497	0	1	0
107.956497	-66.474501000000004	0	1	0
107.838129	-66.523532000000003	0	1	0
107.73158100000001	-66.594723000000002	0	1	0
107.640973	-66.685330999999991	0	1	0
107.56978599999999	-66.791871	0	1	0
107.520751	-66.910246999999998	0	1	0
107.520747	-66.910260999999991	0	1	0
107.49575	-67.035927000000001	0	1	0
107.49575	-67.16407199999999	0	1	0
107.520747	-67.289738	0	1	0
107.520751	-67.289751999999993	0	1	0
107.569782	-67.408119999999997	0	1	0
107.640973	-67.514668	0	1	0
107.73158100000001	-67.605276000000003	0	1	0
107.785031	-67.640990000000002	0	1	0
107.838123	-67.676464999999993	0	1	0
107.885476	-67.696078999999997	0	1	0
107.956497	-67.725498000000002	0	1	0
108.082177	-67.750498999999991	0	1	0
108.78425	-67.750500000000002	0	1	0
108.827737	-67.768512999999999	0	1	0
108.84575	-67.811999999999998	0	1	0
108.84575	-67.86999999999999	0	1	0
110.14624999999999	-67.86999999999999	0	1	0
110.211513	-67.874278000000004	0	1	0
110.337592	-67.908059999999992	0	1	0
110.450631	-67.973322999999993	0	1	0
110.54292700000001	-68.065618999999998	0	1	0
110.60818999999999	-68.178657999999999	0	1	0
110.641972	-68.304737000000003	0	1	0
110.641972	-68.435262999999992	0	1	0
110.60818999999999	-68.561341999999996	0	1	0
110.54292700000001	-68.674380999999997	0	1	0
110.450631	-68.766677000000001	0	1	0
110.337592	-68.831940000000003	0	1	0
110.211513	-68.865721999999991	0	1	0
110.14624999999999	-68.86999999999999	0	1	0
108.84575	-68.86999999999999	0	1	0
108.84575	-70.387999999999991	0	1	0
108.827737	-70.43148699999999	0	1	0
108.78425	-70.4495	0	1	0
97.456249999999997	-70.4495	0	1	0
97.456249999999997	-71.25	0	1	0
97.451971999999998	-71.315263000000002	0	1	0
97.418189999999996	-71.441341999999992	0	1	0
97.352926999999994	-71.554380999999992	0	1	0
97.260630999999989	-71.646676999999997	0	1	0
97.147591999999989	-71.711939999999998	0	1	0
97.021512999999999	-71.745722000000001	0	1	0
96.890986999999996	-71.745722000000001	0	1	0
96.764907999999991	-71.711939999999998	0	1	0
96.651868999999991	-71.646676999999997	0	1	0
96.559573	-71.554380999999992	0	1	0
96.494309999999999	-71.441341999999992	0	1	0
96.460527999999996	-71.315263000000002	0	1	0
96.456249999999997	-71.25	0	1	0
96.456249999999997	-70.4495	0	1	0
96.186250000000001	-70.4495	0	1	0
96.186250000000001	-71.25	0	1	0
96.181972000000002	-71.315263000000002	0	1	0
96.14819	-71.441341999999992	0	1	0
96.082926999999998	-71.554380999999992	0	1	0
95.990630999999993	-71.646676999999997	0	1	0
95.877591999999993	-71.711939999999998	0	1	0
95.751513000000003	-71.745722000000001	0	1	0
95.620987	-71.745722000000001	0	1	0
95.494907999999995	-71.711939999999998	0	1	0
95.381868999999995	-71.646676999999997	0	1	0
95.28957299999999	-71.554380999999992	0	1	0
95.224310000000003	-71.441341999999992	0	1	0
95.190528	-71.315263000000002	0	1	0
95.186250000000001	-71.25	0	1	0
95.186250000000001	-70.4495	0	1	0
95.128249999999994	-70.4495	0	1	0
95.084762999999995	-70.43148699999999	0	1	0
95.066749999999999	-70.387999999999991	0	1	0
95.066749999999999	-70.18592799999999	0	1	0
95.041752000000002	-70.060260999999997	0	1	0
95.041747999999998	-70.06024699999999	0	1	0
95.008217000000002	-69.979298999999997	0	1	0
94.99271499999999	-69.941873000000001	0	1	0
94.921526	-69.835330999999996	0	1	0
94.830918999999994	-69.744723999999991	0	1	0
94.724378000000002	-69.673535999999999	0	1	0
94.606001999999989	-69.624500999999995	0	1	0
94.605987999999996	-69.624496999999991	0	1	0
94.480322000000001	-69.599499999999992	0	1	0
94.352181000000002	-69.599499999999992	0	1	0
94.226511000000002	-69.624496999999991	0	1	0
94.226496999999995	-69.624500999999995	0	1	0
94.108128999999991	-69.673531999999994	0	1	0
94.001581000000002	-69.744722999999993	0	1	0
93.910972999999998	-69.835330999999996	0	1	0
93.839785999999989	-69.941870999999992	0	1	0
93.838066999999995	-69.94601999999999	0	1	0
93.804781999999989	-69.97930199999999	0	1	0
93.757711999999998	-69.979298999999997	0	1	0
93.724432999999991	-69.94601999999999	0	1	0
93.722716999999989	-69.941878000000003	0	1	0
93.65152599999999	-69.835330999999996	0	1	0
93.560918999999998	-69.744723999999991	0	1	0
93.454377999999991	-69.673535999999999	0	1	0
93.336001999999993	-69.624500999999995	0	1	0
93.335988	-69.624496999999991	0	1	0
93.210321999999991	-69.599499999999992	0	1	0
93.082180999999991	-69.599499999999992	0	1	0
92.956510999999992	-69.624496999999991	0	1	0
92.956496999999999	-69.624500999999995	0	1	0
92.838128999999995	-69.673531999999994	0	1	0
92.731580999999991	-69.744722999999993	0	1	0
92.640973000000002	-69.835330999999996	0	1	0
92.569785999999993	-69.941870999999992	0	1	0
92.52075099999999	-70.06024699999999	0	1	0
92.520747	-70.060260999999997	0	1	0
92.495750000000001	-70.185926999999992	0	1	0
92.495750000000001	-70.387999999999991	0	1	0
92.477736999999991	-70.43148699999999	0	1	0
92.434249999999992	-70.4495	0	1	0
89.50824999999999	-70.4495	0	1	0
89.464762999999991	-70.43148699999999	0	1	0
89.446749999999994	-70.387999999999991	0	1	0
89.446749999999994	-69.219999999999999	0	1	0
89.446749999999994	-68.549999999999997	0	1	0
89.446749999999994	-65.170000000000002	0	1	0
89.446749999999994	-62.909999999999997	0	1	0
89.446749999999994	-61.659999999999997	0	1	0
89.446749999999994	-60.75	0	1	0
89.446749999999994	-58.560000000000002	0	1	0
89.446749999999994	-55.169999999999987	0	1	0
89.446749999999994	-51.111999999999988	0	1	0
89.464762999999991	-51.068513000000003	0	1	0
89.50824999999999	-51.0505	0	1	0
92.646249999999995	-51.0505	0	1	0
92.646249999999995	-50.25	0	1	0
92.650527999999994	-50.184736999999998	0	1	0
92.684309999999996	-50.058658000000001	0	1	0
92.749572999999998	-49.945619000000001	0	1	0
92.841869000000003	-49.853323000000003	0	1	0
92.954907999999989	-49.788059999999987	0	1	0
93.080986999999993	-49.754277999999999	0	1	0
93.211512999999997	-49.754277999999999	0	1	0
97.524675000000002	-69.337480999999997	0	1	0
97.578676000000002	-69.443465000000003	0	1	0
97.662784000000002	-69.527573000000004	0	1	0
97.715775999999991	-69.554572999999991	0	1	0
97.768767999999994	-69.581574000000003	0	1	0
97.88624999999999	-69.600180999999992	0	1	0
98.003731999999999	-69.581574000000003	0	1	0
98.109714999999994	-69.527573000000004	0	1	0
98.193822999999995	-69.443466000000001	0	1	0
98.247823999999994	-69.337481999999994	0	1	0
98.266430999999997	-69.219999999999999	0	1	0
98.247823999999994	-69.102518000000003	0	1	0
98.193822999999995	-68.996533999999997	0	1	0
98.109714999999994	-68.912425999999996	0	1	0
98.00372999999999	-68.858424999999997	0	1	0
97.88624999999999	-68.839818999999991	0	1	0
97.768767999999994	-68.858424999999997	0	1	0
97.662784000000002	-68.912425999999996	0	1	0
97.578676999999999	-68.996533999999997	0	1	0
97.524675000000002	-69.102518000000003	0	1	0
97.506068999999997	-69.219999999999999	0	1	0
101.544675	-68.667480999999995	0	1	0
101.598676	-68.773465000000002	0	1	0
101.682784	-68.857573000000002	0	1	0
101.735776	-68.884573000000003	0	1	0
101.788768	-68.911574000000002	0	1	0
101.90625	-68.93018099999999	0	1	0
102.023732	-68.911574000000002	0	1	0
102.129715	-68.857573000000002	0	1	0
102.213823	-68.773465999999999	0	1	0
102.267824	-68.667481999999993	0	1	0
102.28643099999999	-68.549999999999997	0	1	0
102.267824	-68.432518000000002	0	1	0
102.213823	-68.326533999999995	0	1	0
102.129715	-68.242425999999995	0	1	0
102.02373	-68.188424999999995	0	1	0
101.90625	-68.169819000000004	0	1	0
101.788768	-68.188424999999995	0	1	0
101.682784	-68.242425999999995	0	1	0
101.598677	-68.326533999999995	0	1	0
101.544675	-68.432518000000002	0	1	0
101.52606900000001	-68.549999999999997	0	1	0
104.774675	-65.467480999999992	0	1	0
104.828676	-65.573464999999999	0	1	0
104.912784	-65.657572999999999	0	1	0
104.96577600000001	-65.684573	0	1	0
105.01876799999999	-65.711573999999999	0	1	0
105.09389	-65.723472000000001	0	1	0
105.094249	-65.723472000000001	0	1	0
105.094424	-65.723556000000002	0	1	0
105.13625	-65.730181000000002	0	1	0
105.253732	-65.711573999999999	0	1	0
105.35971499999999	-65.657572999999999	0	1	0
105.44382299999999	-65.573465999999996	0	1	0
105.455687	-65.550179999999997	0	1	0
105.49782399999999	-65.467482000000004	0	1	0
105.516431	-65.349999999999994	0	1	0
105.49782399999999	-65.232517999999999	0	1	0
105.448882	-65.136462999999992	0	1	0
105.44382299999999	-65.126533999999992	0	1	0
105.35971499999999	-65.042425999999992	0	1	0
105.25373	-64.988424999999992	0	1	0
105.13625	-64.969819000000001	0	1	0
105.01876799999999	-64.988424999999992	0	1	0
104.912784	-65.042425999999992	0	1	0
104.828677	-65.126533999999992	0	1	0
104.774675	-65.232517999999999	0	1	0
104.756069	-65.349999999999994	0	1	0
96.724674999999991	-65.287481	0	1	0
96.77867599999999	-65.393464999999992	0	1	0
96.862783999999991	-65.477572999999992	0	1	0
96.915775999999994	-65.504572999999993	0	1	0
96.968767999999997	-65.531573999999992	0	1	0
97.086249999999993	-65.550180999999995	0	1	0
97.203732000000002	-65.531573999999992	0	1	0
97.309714999999997	-65.477572999999992	0	1	0
97.393822999999998	-65.393466000000004	0	1	0
97.415970000000002	-65.349999999999994	0	1	0
97.447823999999997	-65.287481999999997	0	1	0
97.466431	-65.170000000000002	0	1	0
97.447823999999997	-65.052517999999992	0	1	0
97.408158	-64.974668999999992	0	1	0
97.393822999999998	-64.946534	0	1	0
97.309714999999997	-64.862425999999999	0	1	0
97.203729999999993	-64.808425	0	1	0
97.086249999999993	-64.789818999999994	0	1	0
96.968767999999997	-64.808425	0	1	0
96.862783999999991	-64.862425999999999	0	1	0
96.778677000000002	-64.946534	0	1	0
96.724674999999991	-65.052517999999992	0	1	0
96.706068999999999	-65.170000000000002	0	1	0
103.588768	-62.548424999999988	0	1	0
103.482784	-62.602425999999987	0	1	0
103.39867700000001	-62.686533999999988	0	1	0
103.344675	-62.792517999999987	0	1	0
103.326087	-62.909879999999987	0	1	0
103.331785	-62.934840999999999	0	1	0
103.330733	-62.939449000000003	0	1	0
103.344675	-63.027480999999987	0	1	0
103.39867599999999	-63.133464999999987	0	1	0
103.482784	-63.217572999999987	0	1	0
103.535776	-63.244573000000003	0	1	0
103.588768	-63.271573999999987	0	1	0
103.70625	-63.290180999999997	0	1	0
103.82373200000001	-63.271573999999987	0	1	0
103.929715	-63.217572999999987	0	1	0
104.013823	-63.133465999999999	0	1	0
104.067824	-63.027481999999999	0	1	0
104.086431	-62.909999999999997	0	1	0
104.067824	-62.792517999999987	0	1	0
104.014831	-62.688513	0	1	0
104.013823	-62.686533999999988	0	1	0
103.929715	-62.602425999999987	0	1	0
103.82373	-62.548424999999988	0	1	0
103.70625	-62.529819000000003	0	1	0
97.938767999999996	-61.298424999999988	0	1	0
97.83278399999999	-61.352425999999987	0	1	0
97.748677000000001	-61.436533999999988	0	1	0
97.694674999999989	-61.542517999999987	0	1	0
97.676068999999998	-61.659999999999997	0	1	0
97.694674999999989	-61.777480999999987	0	1	0
97.748675999999989	-61.883464999999987	0	1	0
97.83278399999999	-61.967572999999987	0	1	0
97.885775999999993	-61.994573000000003	0	1	0
97.938767999999996	-62.021573999999987	0	1	0
98.056249999999991	-62.040180999999997	0	1	0