Version 4
SHEET 1 1280 960
WIRE -176 112 -288 112
WIRE -128 112 -176 112
WIRE -80 112 -128 112
WIRE 32 112 0 112
WIRE 64 112 32 112
WIRE 416 112 352 112
WIRE 464 112 416 112
WIRE 576 112 464 112
WIRE 704 112 656 112
WIRE 704 144 704 112
WIRE 464 208 464 176
WIRE -288 224 -288 192
WIRE -288 224 -352 224
WIRE -176 224 -176 176
WIRE -288 240 -288 224
WIRE 32 240 32 112
WIRE 64 240 32 240
WIRE 416 240 416 112
WIRE 416 240 352 240
WIRE 208 320 208 304
WIRE -288 384 -288 320
WIRE -128 464 -128 112
WIRE -80 464 -128 464
WIRE 64 464 0 464
WIRE 416 464 416 240
WIRE 416 464 352 464
WIRE 32 592 32 240
WIRE 64 592 32 592
WIRE 416 592 416 464
WIRE 416 592 352 592
WIRE 208 656 208 640
WIRE 208 672 208 656
FLAG 208 320 0
FLAG -288 384 0
FLAG 464 208 0
FLAG 704 144 0
FLAG -176 224 0
FLAG 208 672 0
FLAG -416 224 0
SYMBOL polcap 448 112 R0
WINDOW 3 24 56 Left 2
SYMATTR Value 22µ
SYMATTR InstName C1
SYMATTR Description Capacitor
SYMATTR Type cap
SYMATTR SpiceLine V=6.3 Irms=22m Rser=2.4262 Lser=963p mfg="Würth Elektronik" pn="865230140001 WCAP-AS5H 4x5,5" type="Al electrolytic"
SYMBOL voltage -288 96 R0
WINDOW 3 -181 51 Left 2
WINDOW 123 0 0 Left 0
WINDOW 39 0 0 Left 0
SYMATTR Value PWL(0 0 0.01 5)
SYMATTR InstName V1
SYMBOL res 672 96 R90
WINDOW 0 0 56 VBottom 2
WINDOW 3 -63 56 VTop 2
SYMATTR InstName Rload
SYMATTR Value {LoadResistance}
SYMATTR SpiceLine tol=1 pwr=5
SYMBOL PowerProducts\\LT1965-1.8 208 176 R0
SYMATTR InstName U1
SYMBOL polcap -192 112 R0
SYMATTR InstName C2
SYMATTR Value 100µ
SYMATTR Description Capacitor
SYMATTR Type cap
SYMATTR SpiceLine V=2 Irms=3 Rser=0.011 Lser=0 mfg="Rubycon" pn="2SXB100M" type="Al electrolytic"
SYMBOL res 16 96 R90
WINDOW 0 0 56 VBottom 2
WINDOW 3 32 56 VTop 2
SYMATTR InstName R1
SYMATTR Value 0.01
SYMBOL res 16 448 R90
WINDOW 0 0 56 VBottom 2
WINDOW 3 32 56 VTop 2
SYMATTR InstName R5
SYMATTR Value 0.01
SYMBOL PowerProducts\\LT1965-1.8 208 528 R0
SYMATTR InstName U2
SYMBOL bv -288 224 R0
WINDOW 3 -339 50 Left 2
SYMATTR Value V=WHITE(10000*time)*0.05
SYMATTR InstName B1
SYMBOL cap -352 208 R90
WINDOW 0 0 32 VBottom 2
WINDOW 3 32 32 VTop 2
SYMATTR InstName C3
SYMATTR Value 0.01µ
SYMATTR SpiceLine V=4 Irms=162m Rser=0.395426 Lser=0 mfg="KEMET" pn="C0402C103K7PAC" type="X5R"
SYMBOL bv 624 496 R0
SYMATTR InstName B2
TEXT 120 0 Left 2 !.tran 0.5 startup
TEXT 64 -96 Left 2 ;.step param R 0.5 2 0.25
TEXT 104 -56 Left 2 ;R=RAND(0.5,1.5)
TEXT 64 -120 Left 2 !.param LoadResistance = list(0.5 1 1.5)
