[Format]      =  1
[Precision]   =  1e-008
[Frequency]   =  60
[MinAngle]    =  30
[DoSmartMesh] =  1
[Depth]       =  1
[LengthUnits] =  millimeters
[ProblemType] =  planar
[Coordinates] =  cartesian
[Comment]     =  "Add comments here."
[PointProps]   = 0
[BdryProps]   = 3
  <BeginBdry>
    <BdryName> = "GND"
    <BdryType> = 0
    <vsr> = 0
    <vsi> = 0
    <qsr> = 0
    <qsi> = 0
    <c0r>  = 0
    <c0i>  = 0
    <c1r>  = 0
    <c1i>  = 0
  <EndBdry>
  <BeginBdry>
    <BdryName> = "3v3_2A"
    <BdryType> = 2
    <vsr> = 0
    <vsi> = 0
    <qsr> = 43956043
    <qsi> = 0
    <c0r>  = 0
    <c0i>  = 0
    <c1r>  = 0
    <c1i>  = 0
  <EndBdry>
  <BeginBdry>
    <BdryName> = "3V3_flex"
    <BdryType> = 2
    <vsr> = 0
    <vsi> = 0
    <qsr> = 21978021
    <qsi> = 0
    <c0r>  = 0
    <c0i>  = 0
    <c1r>  = 0
    <c1i>  = 0
  <EndBdry>
[BlockProps]  = 1
  <BeginBlock>
    <BlockName> = "Copper"
    <ox> = 58000000
    <oy> = 58000000
    <ex> = 1
    <ey> = 1
    <ltx> = 0
    <lty> = 0
  <EndBlock>
[ConductorProps]  = 0
[NumPoints] = 2859
498.35377894635428	145.05650541952841	0	1	0
498.37545294635419	145.00417941952841	0	1	0
498.37545294635419	144.36192141952839	0	1	0
498.36298194635418	144.32080941952839	0	1	0
498.35368894635428	144.3069024195284	0	1	0
498.34495594635428	144.2629994195284	0	1	0
498.34495594635428	143.5321794195284	0	1	0
498.32328194635431	143.47985341952841	0	1	0
498.27095594635432	143.45817941952839	0	1	0
497.97945294635429	143.45817941952839	0	1	0
497.92712694635429	143.47985341952841	0	1	0
497.90545294635427	143.5321794195284	0	1	0
497.90545294635427	145.00417941952841	0	1	0
497.92712694635429	145.05650541952841	0	1	0
497.97945294635429	145.0781794195284	0	1	0
498.30145294635429	145.0781794195284	0	1	0
495.16680794635431	136.7009484195284	0	1	0
495.19762794635432	136.68035441952841	0	1	0
495.21822194635428	136.64953441952841	0	1	0
495.22545294635432	136.61317941952839	0	1	0
495.22545294635432	134.68317941952839	0	1	0
495.21822194635428	134.6468244195284	0	1	0
495.19762794635432	134.61600441952839	0	1	0
495.16680794635431	134.59541041952841	0	1	0
495.13045294635418	134.58817941952839	0	1	0
494.9404529463543	134.58817941952839	0	1	0
494.90409794635423	134.59541041952841	0	1	0
494.87327794635428	134.61600441952839	0	1	0
494.85268394635432	134.6468244195284	0	1	0
494.84545294635433	134.68317941952839	0	1	0
494.84545294635433	136.61317941952839	0	1	0
494.85268394635432	136.64953441952841	0	1	0
494.87327794635428	136.68035441952841	0	1	0
494.90409794635423	136.7009484195284	0	1	0
494.9404529463543	136.70817941952839	0	1	0
495.13045294635418	136.70817941952839	0	1	0
495.76680794635428	136.7009484195284	0	1	0
495.79762794635428	136.68035441952841	0	1	0
495.81822194635419	136.64953441952841	0	1	0
495.82545294635429	136.61317941952839	0	1	0
495.82545294635429	134.68317941952839	0	1	0
495.81822194635419	134.6468244195284	0	1	0
495.79762794635428	134.61600441952839	0	1	0
495.76680794635428	134.59541041952841	0	1	0
495.73045294635432	134.58817941952839	0	1	0
495.54045294635432	134.58817941952839	0	1	0
495.50409794635419	134.59541041952841	0	1	0
495.4732779463543	134.61600441952839	0	1	0
495.45268394635423	134.6468244195284	0	1	0
495.44545294635429	134.68317941952839	0	1	0
495.44545294635429	136.61317941952839	0	1	0
495.45268394635423	136.64953441952841	0	1	0
495.4732779463543	136.68035441952841	0	1	0
495.50409794635419	136.7009484195284	0	1	0
495.54045294635432	136.70817941952839	0	1	0
495.73045294635432	136.70817941952839	0	1	0
496.36680794635419	136.7009484195284	0	1	0
496.39762794635431	136.68035441952841	0	1	0
496.41822194635432	136.64953441952841	0	1	0
496.42545294635431	136.61317941952839	0	1	0
496.42545294635431	134.68317941952839	0	1	0
496.41822194635432	134.6468244195284	0	1	0
496.39762794635431	134.61600441952839	0	1	0
496.36680794635419	134.59541041952841	0	1	0
496.33045294635428	134.58817941952839	0	1	0
496.14045294635417	134.58817941952839	0	1	0
496.10409794635427	134.59541041952841	0	1	0
496.07327794635432	134.61600441952839	0	1	0
496.05268394635431	134.6468244195284	0	1	0
496.04545294635432	134.68317941952839	0	1	0
496.04545294635432	136.61317941952839	0	1	0
496.05268394635431	136.64953441952841	0	1	0
496.07327794635432	136.68035441952841	0	1	0
496.10409794635427	136.7009484195284	0	1	0
496.14045294635417	136.70817941952839	0	1	0
496.33045294635428	136.70817941952839	0	1	0
496.96680794635432	136.7009484195284	0	1	0
496.99762794635433	136.68035441952841	0	1	0
497.01822194635429	136.64953441952841	0	1	0
497.02545294635428	136.61317941952839	0	1	0
497.02545294635428	134.68317941952839	0	1	0
497.01822194635429	134.6468244195284	0	1	0
496.99762794635433	134.61600441952839	0	1	0
496.96680794635432	134.59541041952841	0	1	0
496.93045294635431	134.58817941952839	0	1	0
496.74045294635431	134.58817941952839	0	1	0
496.7040979463543	134.59541041952841	0	1	0
496.67327794635418	134.61600441952839	0	1	0
496.65268394635427	134.6468244195284	0	1	0
496.64545294635423	134.68317941952839	0	1	0
496.64545294635423	136.61317941952839	0	1	0
496.65268394635427	136.64953441952841	0	1	0
496.67327794635418	136.68035441952841	0	1	0
496.7040979463543	136.7009484195284	0	1	0
496.74045294635431	136.70817941952839	0	1	0
496.93045294635431	136.70817941952839	0	1	0
546.23784894635423	194.4574434195284	0	1	0
546.3768699463543	194.44375141952841	0	1	0
546.38629194635428	194.4418774195284	0	1	0
546.51765794635423	194.40202841952839	0	1	0
546.52652494635424	194.3983554195284	0	1	0
546.59157594635428	194.36358441952839	0	1	0
546.64759694635427	194.33364041952839	0	1	0
546.65558294635423	194.32830441952839	0	1	0
546.76169794635427	194.24121841952839	0	1	0
546.76849094635429	194.23442541952841	0	1	0
546.85557694635429	194.12831041952839	0	1	0
546.86091294635423	194.1203244195284	0	1	0
546.92562594635433	193.99925641952839	0	1	0
546.92930194635426	193.9903814195284	0	1	0
546.96914994635426	193.85901841952841	0	1	0
546.97102394635431	193.84959741952841	0	1	0
546.9847169463543	193.71057641952839	0	1	0
546.98495294635427	140.7105864195284	0	1	0
546.97102394635431	140.5667624195284	0	1	0
546.96914994635426	140.5573414195284	0	1	0
546.92930194635426	140.42597841952841	0	1	0
546.92562594635433	140.41710341952839	0	1	0
546.86091294635423	140.29603541952841	0	1	0
546.85557694635429	140.28804941952839	0	1	0
546.76849094635429	140.1819344195284	0	1	0
546.76169794635427	140.17514141952839	0	1	0
546.65558294635423	140.08805541952839	0	1	0
546.64759694635427	140.08271941952839	0	1	0
546.52652894635423	140.0180064195284	0	1	0
546.51765394635424	140.01433041952839	0	1	0
546.38629094635428	139.97448241952841	0	1	0
546.3768699463543	139.9726084195284	0	1	0
546.23784894635423	139.95891541952841	0	1	0
545.89791994635425	139.95867941952841	0	1	0
545.79476894635422	139.9404924195284	0	1	0
545.72551494635422	139.92828041952839	0	1	0
545.56100894635426	139.86840541952839	0	1	0
545.40939794635426	139.78087241952841	0	1	0
545.27529094635429	139.66834441952841	0	1	0
545.16276494635429	139.5342404195284	0	1	0
545.07523094635428	139.38263141952839	0	1	0
545.01535294635426	139.21812241952841	0	1	0
544.98495294635427	139.0457124195284	0	1	0
544.98495294635427	134.58223641952841	0	1	0
544.97060094635424	134.54758841952841	0	1	0
544.39604394635421	133.97303141952841	0	1	0
544.36139594635426	133.95867941952841	0	1	0
527.74950994635424	133.95867941952841	0	1	0
527.71486194635429	133.97303141952841	0	1	0
527.14030394635427	134.54758941952841	0	1	0
527.12595194635423	134.58223741952841	0	1	0
527.12595194635423	139.3573574195284	0	1	0
527.12769794635426	139.3629294195284	0	1	0
527.12595194635423	139.40135441952839	0	1	0
527.12595194635423	139.44550741952841	0	1	0
527.1232699463543	139.4595954195284	0	1	0
527.12015894635419	139.52707241952839	0	1	0
527.07410294635429	139.7629084195284	0	1	0
526.9939019463543	139.98942041952839	0	1	0
526.88129594635427	140.2016924195284	0	1	0
526.73872694635429	140.39512041952841	0	1	0
526.71860694635427	140.4153534195284	0	1	0
526.56929594635426	140.5655014195284	0	1	0
526.37666494635425	140.70914941952839	0	1	0
526.16502194635427	140.82294141952841	0	1	0
525.9389649463543	140.90440441952839	0	1	0
525.70338994635426	140.95177741952841	0	1	0
525.51140194635423	140.96157841952839	0	1	0
525.46340694635433	140.9640284195284	0	1	0
525.22423194635428	140.94089341952841	0	1	0
524.99105294635433	140.8828754195284	0	1	0
524.76892694635421	140.7912314195284	0	1	0
524.56266694635428	140.66794541952839	0	1	0
524.37675994635424	140.5157014195284	0	1	0
524.21523794635425	140.3378014195284	0	1	0
524.08159794635424	140.1380994195284	0	1	0
523.97874394635426	139.9209264195284	0	1	0
523.90891094635424	139.69100541952841	0	1	0
523.87361294635423	139.4533344195284	0	1	0
523.87353494635431	139.3331634195284	0	1	0
523.87353494635431	139.28901141952841	0	1	0
523.87495294635426	139.27667941952839	0	1	0
523.87495294635426	134.58223641952841	0	1	0
523.86060094635423	134.54758841952841	0	1	0
523.28604394635431	133.97303141952841	0	1	0
523.25139594635425	133.95867941952841	0	1	0
515.0395099463542	133.95867941952841	0	1	0
515.00486194635425	133.97303141952841	0	1	0
514.43030494635423	134.54758841952841	0	1	0
514.41595294635431	134.58223641952841	0	1	0
514.41595294635431	139.8860164195284	0	1	0
514.38023594635433	140.08858341952839	0	1	0
514.30988694635425	140.2818644195284	0	1	0
514.2698389463543	140.35122941952841	0	1	0
514.20704694635424	140.4599894195284	0	1	0
514.07483194635427	140.61755841952839	0	1	0
513.91726694635429	140.7497704195284	0	1	0
513.73914394635426	140.85261041952839	0	1	0
513.5458609463542	140.92296141952841	0	1	0
513.34329594635426	140.95867941952841	0	1	0
513.13760994635425	140.95867941952841	0	1	0
513.01640494635421	140.93730841952839	0	1	0
512.9350489463543	140.9229624195284	0	1	0
512.74176894635423	140.85261441952841	0	1	0
512.56364294635432	140.74977441952839	0	1	0
512.40607394635424	140.61755841952839	0	1	0
512.27385794635427	140.4599894195284	0	1	0
512.17102194635424	140.28187141952839	0	1	0
512.10067094635428	140.08858841952841	0	1	0
512.0943559463542	140.05277441952839	0	1	0
512.0649529463542	139.88602341952841	0	1	0
512.0649529463542	134.58223641952841	0	1	0
512.05060094635428	134.54758841952841	0	1	0
511.47604394635431	133.97303141952841	0	1	0
511.44139594635431	133.95867941952841	0	1	0
494.82950994635428	133.95867941952841	0	1	0
494.79486194635427	133.97303141952841	0	1	0
494.2203049463543	134.54758841952841	0	1	0
494.20595294635427	134.58223641952841	0	1	0
494.20595294635427	136.63243441952841	0	1	0
494.20595294635427	139.04570541952839	0	1	0
494.17555394635428	139.2181174195284	0	1	0
494.11567794635431	139.38262441952841	0	1	0
494.02814494635419	139.53423441952839	0	1	0
493.91561594635431	139.66834241952839	0	1	0
493.88860194635419	139.6910094195284	0	1	0
493.78151294635433	139.78086741952839	0	1	0
493.62990394635432	139.8684014195284	0	1	0
493.46539494635431	139.92827941952839	0	1	0
493.2929849463543	139.95867941952841	0	1	0
492.95785994635418	139.95867941952841	0	1	0
492.81403494635418	139.9726084195284	0	1	0
492.80461394635432	139.97448241952841	0	1	0
492.6732509463543	140.01433041952839	0	1	0
492.66437594635431	140.0180064195284	0	1	0
492.54330794635428	140.08271941952839	0	1	0
492.53532194635432	140.08805541952839	0	1	0
492.42920694635433	140.17514141952839	0	1	0
492.42241394635431	140.1819344195284	0	1	0
492.33532794635431	140.28804941952839	0	1	0
492.32999194635431	140.29603541952841	0	1	0
492.32356394635428	140.3080614195284	0	1	0
492.26527694635428	140.41710741952841	0	1	0
492.26160394635428	140.42597441952839	0	1	0
492.22175494635428	140.5573414195284	0	1	0
492.21988094635418	140.5667624195284	0	1	0
492.20618894635419	140.70578341952839	0	1	0
492.20595294635427	143.8065964195284	0	1	0
492.17516194635431	144.00100341952839	0	1	0
492.11433694635417	144.1882044195284	0	1	0
492.07749094635432	144.26051941952841	0	1	0
492.02497994635428	144.36357941952841	0	1	0
491.90928094635427	144.5228254195284	0	1	0
491.77010494635431	144.66200241952839	0	1	0
491.61085194635427	144.77770741952841	0	1	0
491.43547894635418	144.86706341952839	0	1	0
491.24827894635428	144.92788841952839	0	1	0
491.09893494635418	144.95154241952841	0	1	0
491.05386994635433	144.95867941952841	0	1	0
463.03785994635427	144.95867941952841	0	1	0
462.89403494635428	144.9726084195284	0	1	0
462.88461394635419	144.97448241952841	0	1	0
462.75325094635429	145.01433041952839	0	1	0
462.74437594635418	145.0180064195284	0	1	0
462.62330794635432	145.08271941952839	0	1	0
462.61532194635419	145.08805541952839	0	1	0
462.50920694635431	145.17514141952839	0	1	0
462.5024139463543	145.1819344195284	0	1	0
462.4153279463543	145.28804941952839	0	1	0
462.40999194635418	145.29603541952841	0	1	0
462.38695294635431	145.33913741952841	0	1	0
462.34527694635432	145.41710741952841	0	1	0
462.34160394635433	145.42597441952839	0	1	0
462.30175494635432	145.5573414195284	0	1	0
462.29988094635428	145.5667624195284	0	1	0
462.28618894635429	145.70578341952839	0	1	0
462.28595294635431	155.17027941952841	0	1	0
462.28595294635431	172.15567841952841	0	1	0
462.28595294635431	173.2502794195284	0	1	0
462.28595294635431	182.9181794195284	0	1	0
462.28595294635431	186.77817941952841	0	1	0
462.28595294635431	191.64942741952839	0	1	0
462.28595294635431	191.94625241952841	0	1	0
462.28595294635431	193.70577341952841	0	1	0
462.29988094635428	193.84959741952841	0	1	0
462.30175494635432	193.85901841952841	0	1	0
462.34160594635432	193.99038941952841	0	1	0
462.34527494635432	193.99924941952841	0	1	0
462.40999494635429	194.12032941952839	0	1	0
462.41532394635419	194.1283054195284	0	1	0
462.5024139463543	194.2344264195284	0	1	0
462.50920694635431	194.24121841952839	0	1	0
462.61532694635429	194.32830841952841	0	1	0
462.62330294635427	194.3336374195284	0	1	0
462.74438294635428	194.39835741952839	0	1	0
462.75324294635419	194.4020264195284	0	1	0
462.88461494635419	194.44187841952839	0	1	0
462.89403394635428	194.44375141952841	0	1	0
463.03305694635418	194.4574434195284	0	1	0
463.07962294635428	194.4576794195284	0	1	0
546.19128294635425	194.4576794195284	0	1	0
497.91995494635432	145.22184541952839	0	1	0
497.86761794635419	145.20016841952841	0	1	0
497.83246394635432	145.17987141952841	0	1	0
497.78346294635418	145.1160124195284	0	1	0
497.76178894635427	145.06368641952841	0	1	0
497.74995294635431	145.0041854195284	0	1	0
497.74995294635431	143.53217441952839	0	1	0
497.76178694635428	143.47268241952841	0	1	0
497.78346394635417	143.42034541952839	0	1	0
497.7936119463543	143.4027684195284	0	1	0
497.80376094635432	143.38519041952841	0	1	0
497.85883994635418	143.34292741952839	0	1	0
497.86761994635418	143.33619041952841	0	1	0
497.91994594635418	143.31451641952839	0	1	0
497.9794469463543	143.3026804195284	0	1	0
498.27095594635432	143.3026794195284	0	1	0
498.29408994635418	143.30728141952841	0	1	0
498.33087194635431	143.2999664195284	0	1	0
498.35170794635428	143.2687844195284	0	1	0
498.34439294635428	143.23200141952839	0	1	0
498.33829794635432	143.22457541952841	0	1	0
498.06453894635428	142.9508154195284	0	1	0
497.92187894635418	142.80815541952839	0	1	0
497.89665094635433	142.78292741952839	0	1	0
497.86547694635431	142.7517544195284	0	1	0
497.83495294635429	142.6780634195284	0	1	0
497.83495294635429	136.80400541952841	0	1	0
497.82060094635432	136.7693574195284	0	1	0
497.81317694635419	136.76326441952841	0	1	0
497.79950894635431	136.75413141952839	0	1	0
497.75629594635433	136.68946041952839	0	1	0
497.74495294635432	136.63243441952841	0	1	0
497.74495294635432	134.66392841952839	0	1	0
497.75629594635433	134.60689941952839	0	1	0
497.79950494635432	134.54223041952841	0	1	0
497.86417094635431	134.49902341952841	0	1	0
497.92119794635431	134.4876794195284	0	1	0
498.14970694635429	134.4876804195284	0	1	0
498.20673294635418	134.49902241952839	0	1	0
498.27140094635428	134.54223141952841	0	1	0
498.27498094635428	134.54758841952841	0	1	0
498.3037449463543	134.5906384195284	0	1	0
498.31460994635432	134.60689941952839	0	1	0
498.32595294635428	134.6639244195284	0	1	0
498.32595194635428	136.63243341952841	0	1	0
498.31460994635432	136.68945941952839	0	1	0
498.27140094635428	136.7541274195284	0	1	0
498.25772894635429	136.76326441952841	0	1	0
498.23689394635431	136.79444741952841	0	1	0
498.23595294635419	136.80400541952841	0	1	0
498.23595294635419	142.53483341952841	0	1	0
498.25030494635428	142.56948141952839	0	1	0
498.81542994635419	143.13460641952841	0	1	0
498.84595594635431	143.2083004195284	0	1	0
498.84595594635431	143.28806541952841	0	1	0
498.84595594635431	143.43486041952841	0	1	0
498.86030794635428	143.46950841952841	0	1	0
498.86773594635429	143.47560441952839	0	1	0
498.87779994635417	143.4905194195284	0	1	0
498.89012394635432	143.50896341952841	0	1	0
498.89595494635432	143.53827541952839	0	1	0
498.89595494635432	144.25807741952841	0	1	0
498.89012494635432	144.2873924195284	0	1	0
498.86791294635429	144.3206364195284	0	1	0
498.83466794635427	144.34284941952839	0	1	0
498.80535994635432	144.34867941952839	0	1	0
498.5799529463543	144.34867941952839	0	1	0
498.54530494635418	144.3630314195284	0	1	0
498.53095294635432	144.3976794195284	0	1	0
498.53095294635432	145.00417941952841	0	1	0
498.5191179463543	145.0636774195284	0	1	0
498.49744094635417	145.1160144195284	0	1	0
498.49472194635428	145.12072441952839	0	1	0
498.47714494635431	145.1511684195284	0	1	0
498.41328594635428	145.20016841952841	0	1	0
498.36095894635417	145.2218434195284	0	1	0
498.30145794635428	145.23367941952841	0	1	0
497.97945294635429	145.23367941952841	0	1	0
494.74495294635432	136.63243341952841	0	1	0
494.74495294635432	134.66392841952839	0	1	0
494.75629594635433	134.60689941952839	0	1	0
494.79950494635432	134.54223041952841	0	1	0
494.86417094635431	134.49902341952841	0	1	0
494.92119794635431	134.4876794195284	0	1	0
495.14970694635429	134.4876804195284	0	1	0
495.20673294635418	134.49902241952839	0	1	0
495.27140094635428	134.54223141952841	0	1	0
495.29470994635432	134.5771184195284	0	1	0
495.32589094635432	134.59795341952841	0	1	0
495.36267294635428	134.5906384195284	0	1	0
495.37619394635431	134.5771184195284	0	1	0
495.39950494635423	134.54223041952841	0	1	0
495.46417094635427	134.49902341952841	0	1	0
495.52119794635428	134.4876794195284	0	1	0
495.74970694635431	134.4876804195284	0	1	0
495.80673294635432	134.49902241952839	0	1	0
495.87140094635419	134.54223141952841	0	1	0
495.89470994635428	134.5771184195284	0	1	0
495.92589094635417	134.59795341952841	0	1	0
495.96267294635419	134.5906384195284	0	1	0
495.97619394635427	134.5771184195284	0	1	0
495.99950494635431	134.54223041952841	0	1	0
496.06417094635418	134.49902341952841	0	1	0
496.1211979463543	134.4876794195284	0	1	0
496.34970694635427	134.4876804195284	0	1	0
496.40673294635428	134.49902241952839	0	1	0
496.47140094635432	134.54223141952841	0	1	0
496.49470994635431	134.5771184195284	0	1	0
496.52589094635431	134.59795341952841	0	1	0
496.56267294635433	134.5906384195284	0	1	0
496.57619394635418	134.5771184195284	0	1	0
496.59950494635427	134.54223041952841	0	1	0
496.66417094635432	134.49902341952841	0	1	0
496.72119794635432	134.4876794195284	0	1	0
496.94970694635418	134.4876804195284	0	1	0
497.0067329463543	134.49902241952839	0	1	0
497.07140094635429	134.54223141952841	0	1	0
497.07498094635417	134.54758841952841	0	1	0
497.10374494635431	134.5906384195284	0	1	0
497.11460994635428	134.60689941952839	0	1	0
497.12595294635418	134.6639244195284	0	1	0
497.12595194635418	136.63243341952841	0	1	0
497.11460994635428	136.68945941952839	0	1	0
497.07140094635429	136.7541274195284	0	1	0
497.0067339463543	136.79733641952839	0	1	0
496.99532794635428	136.7996054195284	0	1	0
496.94970794635418	136.8086794195284	0	1	0
496.72120094635432	136.8086794195284	0	1	0
496.69146394635419	136.80276441952839	0	1	0
496.66417294635431	136.79733641952839	0	1	0
496.59950394635428	136.7541284195284	0	1	0
496.57619494635418	136.7192414195284	0	1	0
496.54501294635429	136.6984064195284	0	1	0
496.50822994635428	136.7057224195284	0	1	0
496.4947109463543	136.7192414195284	0	1	0
496.47139994635432	136.7541294195284	0	1	0
496.40673394635428	136.79733641952839	0	1	0
496.39532794635431	136.7996054195284	0	1	0
496.34970794635427	136.8086794195284	0	1	0
496.12120094635429	136.8086794195284	0	1	0
496.09146394635422	136.80276441952839	0	1	0
496.06417294635418	136.79733641952839	0	1	0
495.99950394635431	136.7541284195284	0	1	0
495.97619494635433	136.7192414195284	0	1	0
495.94501294635432	136.6984064195284	0	1	0
495.90822994635431	136.7057224195284	0	1	0
495.89471094635428	136.7192414195284	0	1	0
495.87139994635419	136.7541294195284	0	1	0
495.80673394635431	136.79733641952839	0	1	0
495.79532794635429	136.7996054195284	0	1	0
495.74970794635431	136.8086794195284	0	1	0
495.52120094635433	136.8086794195284	0	1	0
495.49146394635432	136.80276441952839	0	1	0
495.46417294635432	136.79733641952839	0	1	0
495.39950394635417	136.7541284195284	0	1	0
495.3761949463543	136.7192414195284	0	1	0
495.34501294635419	136.6984064195284	0	1	0
495.30822994635417	136.7057224195284	0	1	0
495.29471094635431	136.7192414195284	0	1	0
495.27139994635428	136.7541294195284	0	1	0
495.20673394635418	136.79733641952839	0	1	0
495.19532794635433	136.7996054195284	0	1	0
495.14970794635428	136.8086794195284	0	1	0
494.92120094635419	136.8086794195284	0	1	0
494.89146394635429	136.80276441952839	0	1	0
494.8641729463543	136.79733641952839	0	1	0
494.79950294635432	136.7541274195284	0	1	0
494.75629594635433	136.68946141952841	0	1	0
499.39495694635423	143.53828541952839	0	1	0
499.39617194635417	143.5321794195284	0	1	0
499.40078794635428	143.50896641952841	0	1	0
499.42270194635432	143.47616741952839	0	1	0
499.42641294635428	143.47230841952839	0	1	0
499.44401394635429	143.44442741952841	0	1	0
499.4449569463543	143.43486041952841	0	1	0
499.4449569463543	143.15829241952841	0	1	0
499.45476794635431	143.13460741952841	0	1	0
499.47548094635431	143.08460141952841	0	1	0
499.91060094635429	142.6494814195284	0	1	0
499.92495294635432	142.6148334195284	0	1	0
499.92495294635432	140.3080614195284	0	1	0
499.92495294635432	140.22829741952839	0	1	0
499.95547694635422	140.15460541952839	0	1	0
500.22060094635418	139.88948141952841	0	1	0
500.23495294635433	139.8548334195284	0	1	0
500.23495294635433	136.80400541952841	0	1	0
500.22060094635418	136.7693574195284	0	1	0
500.21317694635422	136.76326441952841	0	1	0
500.19950894635429	136.75413141952839	0	1	0
500.15629594635419	136.68946041952839	0	1	0
500.14495294635418	136.63243441952841	0	1	0
500.14495294635418	134.66392841952839	0	1	0
500.15629594635419	134.60689941952839	0	1	0
500.1995049463543	134.54223041952841	0	1	0
500.26417094635428	134.49902341952841	0	1	0
500.32119794635418	134.4876794195284	0	1	0
500.54970694635432	134.4876804195284	0	1	0
500.60673294635433	134.49902241952839	0	1	0
500.67140094635431	134.54223141952841	0	1	0
500.67498094635431	134.54758841952841	0	1	0
500.70374494635428	134.5906384195284	0	1	0
500.71460994635419	134.60689941952839	0	1	0
500.72595294635431	134.6639244195284	0	1	0
500.72595194635431	136.63243341952841	0	1	0
500.71460994635419	136.68945941952839	0	1	0
500.67140094635431	136.7541274195284	0	1	0
500.65772894635433	136.76326441952841	0	1	0
500.63689394635418	136.79444741952841	0	1	0
500.63595294635428	136.80400541952841	0	1	0
500.63595294635428	139.9980594195284	0	1	0
500.62863394635428	140.01573141952841	0	1	0
500.60542894635432	140.07175341952839	0	1	0
500.54902694635427	140.12815541952841	0	1	0
500.34030494635431	140.33687741952841	0	1	0
500.32595294635428	140.37152541952841	0	1	0
500.32595294635428	142.75805941952839	0	1	0
500.30520394635431	142.80815441952839	0	1	0
500.29542894635432	142.83175341952841	0	1	0
500.23902694635427	142.8881554195284	0	1	0
499.86030894635428	143.26687341952839	0	1	0
499.84595694635419	143.3015214195284	0	1	0
499.84595694635419	143.43486041952841	0	1	0
499.86030894635428	143.46950841952841	0	1	0
499.86773694635428	143.47560441952839	0	1	0
499.87780094635423	143.4905194195284	0	1	0
499.89012494635432	143.50896341952841	0	1	0
499.89595594635432	143.53827541952839	0	1	0
499.89595594635432	144.25807741952841	0	1	0
499.89012594635432	144.2873924195284	0	1	0
499.86791394635429	144.3206364195284	0	1	0
499.83466894635433	144.34284941952839	0	1	0
499.80535794635432	144.34867941952839	0	1	0
499.48556194635432	144.34867941952839	0	1	0
499.45624394635428	144.34284841952839	0	1	0
499.42299994635431	144.3206374195284	0	1	0
499.40078694635429	144.2873934195284	0	1	0
499.39495694635423	144.25808441952839	0	1	0
462.51995294635418	154.5160814195284	0	1	0
462.52643294635419	154.46685141952841	0	1	0
462.57680894635428	154.3588204195284	0	1	0
462.66109094635419	154.2745374195284	0	1	0
462.76912294635429	154.2241604195284	0	1	0
462.81834994635432	154.21767941952839	0	1	0
463.37255494635428	154.21768041952839	0	1	0
463.42178294635431	154.2241604195284	0	1	0
463.50762494635433	154.2641904195284	0	1	0
463.52197494635419	154.26836541952841	0	1	0
463.95942094635433	154.32553941952841	0	1	0
463.96781594635428	154.32590841952839	0	1	0
464.39113094635428	154.3080834195284	0	1	0
464.43085094635433	154.31268041952839	0	1	0
464.94255094635429	154.31268041952839	0	1	0
464.99178294635419	154.3191604195284	0	1	0
465.09981194635429	154.3695354195284	0	1	0
465.18409694635432	154.4538204195284	0	1	0
465.23447194635418	154.56184941952839	0	1	0
465.24095294635418	154.61107641952839	0	1	0
465.24095194635419	155.16528141952841	0	1	0
465.23641394635428	155.1997544195284	0	1	0
465.24612094635432	155.23597741952841	0	1	0
465.27859994635418	155.25472841952839	0	1	0
465.30013594635432	155.25274941952841	0	1	0
465.30738494635432	155.25039341952839	0	1	0
465.3309429463543	155.24273841952839	0	1	0
465.39445294635419	155.23267941952841	0	1	0
465.84295294635427	155.23267941952841	0	1	0
465.87760094635428	155.21832741952841	0	1	0
465.89195294635431	155.1836794195284	0	1	0
465.89153494635428	155.17730141952839	0	1	0
465.88995294635419	155.16528241952841	0	1	0
465.88995294635419	154.6110814195284	0	1	0
465.89643294635431	154.56185141952841	0	1	0
465.94680894635428	154.4538204195284	0	1	0
466.03109094635431	154.3695374195284	0	1	0
466.13912294635429	154.3191604195284	0	1	0
466.18834994635432	154.31267941952839	0	1	0
466.76755494635432	154.31268041952839	0	1	0
466.81678294635418	154.3191604195284	0	1	0
466.92481194635428	154.3695354195284	0	1	0
467.00909694635419	154.4538204195284	0	1	0
467.05947194635428	154.56184941952839	0	1	0
467.06595294635429	154.61107641952839	0	1	0
467.06595194635429	155.16528141952841	0	1	0
467.06458494635427	155.17566041952841	0	1	0
467.07407994635429	155.2135104195284	0	1	0
467.10655894635431	155.23226041952839	0	1	0
467.11295294635431	155.23267941952841	0	1	0
467.75781994635429	155.23267941952841	0	1	0
467.76790894635428	155.23292741952841	0	1	0
467.7776269463543	155.2334054195284	0	1	0
467.84991194635433	155.2503924195284	0	1	0
467.90596594635429	155.2749204195284	0	1	0
467.96011194635429	155.3095924195284	0	1	0
472.21797594635427	159.09436041952841	0	1	0
472.35966094635432	159.22030241952839	0	1	0
472.39221494635427	159.23267941952841	0	1	0
476.43633894635423	159.23267941952841	0	1	0
476.46860094635429	159.2352274195284	0	1	0
476.48302294635431	159.23752041952841	0	1	0
476.49927094635427	159.2401024195284	0	1	0
476.58802094635428	159.2769454195284	0	1	0
476.60174194635431	159.28693941952841	0	1	0
476.63819694635419	159.29573741952839	0	1	0
476.67019694635428	159.2761804195284	0	1	0
476.67913694635428	159.2638754195284	0	1	0
479.62113894635428	156.3218724195284	0	1	0
479.6329959463543	156.3109114195284	0	1	0
479.64480694635432	156.3008234195284	0	1	0
479.7147679463543	156.26164341952841	0	1	0
479.77295894635432	156.2427364195284	0	1	0
479.83646094635418	156.23267941952841	0	1	0
481.69613094635429	156.23267941952841	0	1	0
481.72860994635431	156.2352604195284	0	1	0
481.75949694635432	156.2402024195284	0	1	0
481.84833794635432	156.27724641952841	0	1	0
481.89772494635429	156.3133644195284	0	1	0
481.92539194635418	156.3376894195284	0	1	0
481.97205494635432	156.4163464195284	0	1	0
481.99078094635428	156.47459641952841	0	1	0
482.00064094635428	156.53813241952841	0	1	0
481.98118594635417	162.75971741952841	0	1	0
481.98110694635432	162.7648094195284	0	1	0
481.96740194635419	162.8375884195284	0	1	0
481.96506994635428	162.84573541952841	0	1	0
481.95485294635432	162.88113841952841	0	1	0
481.94497694635419	162.89572641952839	0	1	0
481.92924294635429	162.92778441952839	0	1	0
481.90950994635432	162.94811641952839	0	1	0
481.90358294635428	162.95687241952839	0	1	0
481.89708294635432	162.96294341952839	0	1	0
481.86554894635418	162.99341341952839	0	1	0
481.86038694635431	162.9974544195284	0	1	0
481.80559894635428	163.03462941952839	0	1	0
481.7977099463543	163.0383164195284	0	1	0
481.77513794635428	163.04654241952841	0	1	0
481.76131194635423	163.04654241952841	0	1	0
481.69822794635428	163.0726724195284	0	1	0
481.6855909463543	163.08530941952839	0	1	0
481.66764094635431	163.0956724195284	0	1	0
481.65829194635432	163.10106941952839	0	1	0
481.64704794635429	163.1087204195284	0	1	0
481.63350994635431	163.1150464195284	0	1	0
481.59108194635428	163.1294774195284	0	1	0
481.54915994635428	163.13879041952839	0	1	0
481.50460194635423	163.14367941952841	0	1	0
478.31604394635428	163.14367941952841	0	1	0
478.2628569463543	163.13667841952841	0	1	0
478.21335794635428	163.12341541952841	0	1	0
478.17932194635432	163.1093174195284	0	1	0
478.17267794635433	163.1026724195284	0	1	0
478.10959394635432	163.07654241952841	0	1	0
478.04131194635431	163.07654241952841	0	1	0
477.97822794635431	163.1026724195284	0	1	0
477.97158394635431	163.1093164195284	0	1	0
477.93755494635423	163.1234114195284	0	1	0
477.88806094635419	163.13667441952839	0	1	0
477.83486194635429	163.14367941952841	0	1	0
476.89445294635419	163.14367941952841	0	1	0
476.88318894635432	163.1427934195284	0	1	0
476.86231794635432	163.1411504195284	0	1	0
476.83172494635431	163.13630641952841	0	1	0
476.77923794635433	163.1150464195284	0	1	0
476.74306994635418	163.0995874195284	0	1	0
476.69356994635427	163.0636234195284	0	1	0
476.67247594635433	163.0451954195284	0	1	0
476.66173294635428	163.04157241952839	0	1	0
476.65270694635427	163.03470941952841	0	1	0