[Format]      =  1
[Precision]   =  1.0000000000000001e-009
[Frequency]   =  60
[MinAngle]    =  30
[DoSmartMesh] =  1
[Depth]       =  0.10000000000000001
[LengthUnits] =  millimeters
[ProblemType] =  planar
[Coordinates] =  cartesian
[Comment]     =  "Add comments here."
[PointProps]   = 0
[BdryProps]   = 5
  <BeginBdry>
    <BdryName> = "GND"
    <BdryType> = 0
    <vsr> = 0
    <vsi> = 0
    <qsr> = 0
    <qsi> = 0
    <c0r>  = 0
    <c0i>  = 0
    <c1r>  = 0
    <c1i>  = 0
  <EndBdry>
  <BeginBdry>
    <BdryName> = "GND_1"
    <BdryType> = 3
    <vsr> = 0
    <vsi> = 0
    <qsr> = 0
    <qsi> = 0
    <c0r>  = 0
    <c0i>  = 0
    <c1r>  = 0
    <c1i>  = 0
  <EndBdry>
  <BeginBdry>
    <BdryName> = "Voltage"
    <BdryType> = 2
    <vsr> = 0
    <vsi> = 0
    <qsr> = 40000000
    <qsi> = 0
    <c0r>  = 0
    <c0i>  = 0
    <c1r>  = 0
    <c1i>  = 0
  <EndBdry>
  <BeginBdry>
    <BdryName> = "retutn"
    <BdryType> = 2
    <vsr> = 0
    <vsi> = 0
    <qsr> = -4000000
    <qsi> = 0
    <c0r>  = 0
    <c0i>  = 0
    <c1r>  = 0
    <c1i>  = 0
  <EndBdry>
  <BeginBdry>
    <BdryName> = "3V"
    <BdryType> = 0
    <vsr> = 3
    <vsi> = 0
    <qsr> = 0
    <qsi> = 0
    <c0r>  = 0
    <c0i>  = 0
    <c1r>  = 0
    <c1i>  = 0
  <EndBdry>
[BlockProps]  = 1
  <BeginBlock>
    <BlockName> = "Copper"
    <ox> = 58000000
    <oy> = 58000000
    <ex> = 1
    <ey> = 1
    <ltx> = 0
    <lty> = 0
  <EndBlock>
[ConductorProps]  = 0
[NumPoints] = 385
546.41447431093934	196.25717755822859	0	1	0
546.5534953109393	196.2434855582286	0	1	0
546.56291731093938	196.24161155822861	0	1	0
546.69428331093945	196.20176255822861	0	1	0
546.70315031093946	196.19808955822859	0	1	0
546.76820131093928	196.16331855822861	0	1	0
546.82422231093938	196.13337455822861	0	1	0
546.83220831093945	196.12803855822861	0	1	0
546.93832331093927	196.04095255822861	0	1	0
546.94511631093928	196.03415955822859	0	1	0
547.03220231093928	195.92804455822861	0	1	0
547.03753831093945	195.92005855822859	0	1	0
547.10225131093944	195.79899055822861	0	1	0
547.10592731093925	195.79011555822859	0	1	0
547.14577531093937	195.6587525582286	0	1	0
547.14764931093941	195.6493315582286	0	1	0
547.16134231093929	195.51031055822861	0	1	0
547.16157831093938	142.51032055822861	0	1	0
547.14764931093941	142.36649655822859	0	1	0
547.14577531093937	142.35707555822859	0	1	0
547.10592731093925	142.22571255822859	0	1	0
547.10225131093944	142.2168375582286	0	1	0
547.03753831093945	142.0957695582286	0	1	0
547.03220231093928	142.08778355822861	0	1	0
546.94511631093928	141.98166855822859	0	1	0
546.93832331093927	141.9748755582286	0	1	0
546.83220831093945	141.8877895582286	0	1	0
546.82422231093938	141.8824535582286	0	1	0
546.70315431093945	141.81774055822859	0	1	0
546.69427931093946	141.81406455822861	0	1	0
546.56291631093927	141.7742165582286	0	1	0
546.5534953109393	141.77234255822859	0	1	0
546.41447431093934	141.7586495582286	0	1	0
546.07454531093936	141.7584135582286	0	1	0
545.97139431093933	141.74022655822861	0	1	0
545.90214031093933	141.72801455822861	0	1	0
545.73763431093926	141.6681395582286	0	1	0
545.58602331093925	141.5806065582286	0	1	0
545.4519163109394	141.4680785582286	0	1	0
545.33939031093928	141.33397455822859	0	1	0
545.25185631093927	141.18236555822861	0	1	0
545.19197831093925	141.0178565582286	0	1	0
545.16157831093938	140.84544655822859	0	1	0
545.16157831093938	136.3819705582286	0	1	0
545.14722631093946	136.3473225582286	0	1	0
544.57266931093932	135.7727655582286	0	1	0
544.53802131093926	135.7584135582286	0	1	0
527.92613531093934	135.7584135582286	0	1	0
527.89148731093928	135.7727655582286	0	1	0
527.31692931093926	136.3473235582286	0	1	0
527.30257731093934	136.3819715582286	0	1	0
527.30257731093934	137.5027155582286	0	1	0
527.30257731093934	141.15709155822859	0	1	0
527.30432331093925	141.16266355822859	0	1	0
527.30257731093934	141.20108855822861	0	1	0
527.30257731093934	141.2452415582286	0	1	0
527.29989531093929	141.25932955822859	0	1	0
527.2967843109393	141.32680655822861	0	1	0
527.25072831093939	141.56264255822859	0	1	0
527.17052731093941	141.7891545582286	0	1	0
527.05792131093926	142.00142655822859	0	1	0
526.9153523109394	142.1948545582286	0	1	0
526.89523231093926	142.21508755822859	0	1	0
526.74592131093937	142.36523555822859	0	1	0
526.55329031093925	142.5088835582286	0	1	0
526.34164731093938	142.62267555822859	0	1	0
526.1155903109393	142.70413855822861	0	1	0
525.88001531093937	142.7515115582286	0	1	0
525.68802731093933	142.76131255822861	0	1	0
525.64003231093943	142.76376255822859	0	1	0
525.40085731093927	142.7406275582286	0	1	0
525.16767831093944	142.68260955822859	0	1	0
524.94555231093932	142.59096555822859	0	1	0
524.73929231093939	142.46767955822861	0	1	0
524.55338531093935	142.31543555822859	0	1	0
524.39186331093947	142.13753555822859	0	1	0
524.25822331093946	141.93783355822859	0	1	0
524.15536931093925	141.72066055822859	0	1	0
524.08553631093946	141.4907395582286	0	1	0
524.05023831093945	141.25306855822859	0	1	0
524.05016031093942	141.13289755822859	0	1	0
524.05016031093942	141.0887455582286	0	1	0
524.05157831093925	141.07641355822861	0	1	0
524.05157831093925	136.3819705582286	0	1	0
524.03722631093933	136.3473225582286	0	1	0
523.46266931093942	135.7727655582286	0	1	0
523.42802131093936	135.7584135582286	0	1	0
515.21613531093931	135.7584135582286	0	1	0
515.18148731093925	135.7727655582286	0	1	0
514.60693031093933	136.3473225582286	0	1	0
514.59257831093942	136.3819705582286	0	1	0
514.59257831093942	137.5027155582286	0	1	0
514.59257831093942	141.68575055822859	0	1	0
514.55686131093944	141.88831755822861	0	1	0
514.48651231093936	142.08159855822859	0	1	0
514.45421731093938	142.13753555822859	0	1	0
514.38367231093935	142.25972355822859	0	1	0
514.25145731093926	142.41729255822861	0	1	0
514.09389231093928	142.54950455822859	0	1	0
513.91576931093937	142.65234455822861	0	1	0
513.7224863109393	142.72269555822859	0	1	0
513.51992131093925	142.7584135582286	0	1	0
513.31423531093947	142.7584135582286	0	1	0
513.19303031093932	142.73704255822861	0	1	0
513.11167431093941	142.72269655822859	0	1	0
512.91839431093945	142.6523485582286	0	1	0
512.74026831093943	142.54950855822861	0	1	0
512.58269931093946	142.41729255822861	0	1	0
512.45048331093926	142.25972355822859	0	1	0
512.34764731093946	142.0816055582286	0	1	0
512.27729631093939	141.88832255822859	0	1	0
512.2415783109393	141.6857575582286	0	1	0
512.2415783109393	136.3819705582286	0	1	0
512.22722631093939	136.3473225582286	0	1	0
511.65266931093942	135.7727655582286	0	1	0
511.61802131093941	135.7584135582286	0	1	0
495.00613531093938	135.7584135582286	0	1	0
494.97148731093938	135.7727655582286	0	1	0
494.39693031093941	136.3473225582286	0	1	0
494.38257831093938	136.3819705582286	0	1	0
494.38257831093938	138.30271555822861	0	1	0
494.38257831093938	140.84543955822861	0	1	0
494.35217931093928	141.01785155822861	0	1	0
494.29230331093942	141.1823585582286	0	1	0
494.20477031093941	141.33396855822861	0	1	0
494.09224131093941	141.4680765582286	0	1	0
494.06522731093941	141.49074355822859	0	1	0
493.95813831093938	141.58060155822861	0	1	0
493.80652931093942	141.66813555822861	0	1	0
493.64202031093942	141.72801355822861	0	1	0
493.46961031093929	141.7584135582286	0	1	0
493.1344853109394	141.7584135582286	0	1	0
492.9906603109394	141.77234255822859	0	1	0
492.98123931093937	141.7742165582286	0	1	0
492.84987631093941	141.81406455822861	0	1	0
492.84100131093942	141.81774055822859	0	1	0
492.71993331093938	141.8824535582286	0	1	0
492.71194731093942	141.8877895582286	0	1	0
492.60583231093938	141.9748755582286	0	1	0
492.59903931093942	141.98166855822859	0	1	0
492.51195331093942	142.08778355822861	0	1	0
492.50661731093942	142.0957695582286	0	1	0
492.44190231093938	142.21684155822859	0	1	0
492.43822931093928	142.2257085582286	0	1	0
492.39838031093939	142.35707555822859	0	1	0
492.3965063109394	142.36649655822859	0	1	0
492.38281431093941	142.5055175582286	0	1	0
492.38257831093938	145.60633055822859	0	1	0
492.35178731093941	145.8007375582286	0	1	0
492.29096231093939	145.98793855822859	0	1	0
492.26830131093942	146.0324135582286	0	1	0
492.20160531093939	146.16331355822859	0	1	0
492.08590631093938	146.32255955822859	0	1	0
491.94673031093942	146.46173655822861	0	1	0
491.89693831093928	146.49791355822859	0	1	0
491.78748331093942	146.57743755822861	0	1	0
491.6121043109394	146.66679755822861	0	1	0
491.50703231093928	146.70093755822859	0	1	0
491.42490431093938	146.7276225582286	0	1	0
491.32961331093941	146.74271555822861	0	1	0
491.2755603109394	146.7512765582286	0	1	0
491.23049531093938	146.7584135582286	0	1	0
463.21448531093938	146.7584135582286	0	1	0
463.07066031093939	146.77234255822859	0	1	0
463.06123931093941	146.7742165582286	0	1	0
462.92987631093939	146.81406455822861	0	1	0
462.9210013109394	146.81774055822859	0	1	0
462.79993331093942	146.8824535582286	0	1	0
462.79194731093941	146.8877895582286	0	1	0
462.68583231093942	146.9748755582286	0	1	0
462.67903931093929	146.98166855822859	0	1	0
462.59195331093929	147.08778355822861	0	1	0
462.5866173109394	147.0957695582286	0	1	0
462.52190231093942	147.21684155822859	0	1	0
462.51822931093938	147.2257085582286	0	1	0
462.47838031093937	147.35707555822859	0	1	0
462.47650631093939	147.36649655822859	0	1	0
462.46281431093939	147.5055175582286	0	1	0
462.46257831093942	149.3509125582286	0	1	0
462.46257831093942	151.39271555822859	0	1	0
462.46257831093942	152.2827155582286	0	1	0
462.46257831093942	152.79271555822859	0	1	0
462.46257831093942	153.6327155582286	0	1	0
462.46257831093942	154.04271555822859	0	1	0
462.46257831093942	154.8827155582286	0	1	0
462.46257831093942	155.8427155582286	0	1	0
462.46257831093942	156.39944655822859	0	1	0
462.46257831093942	156.71271555822861	0	1	0
462.46257831093942	157.27271555822861	0	1	0
462.46257831093942	163.9642155582286	0	1	0
462.46257831093942	164.29271555822859	0	1	0
462.46257831093942	164.7827155582286	0	1	0
462.46257831093942	165.74257855822859	0	1	0
462.46257831093942	166.37271555822861	0	1	0
462.46257831093942	166.77271555822861	0	1	0
462.46257831093942	173.44921555822859	0	1	0
462.46257831093942	173.79271555822859	0	1	0
462.46257831093942	174.27271555822861	0	1	0
462.46257831093942	175.2527155582286	0	1	0
462.46257831093942	176.24271555822861	0	1	0
462.46257831093942	176.79271555822859	0	1	0
462.46257831093942	178.26271555822859	0	1	0
462.46257831093942	178.7827155582286	0	1	0
462.46257831093942	179.26271555822859	0	1	0
462.46257831093942	179.79271555822859	0	1	0
462.46257831093942	180.26271555822859	0	1	0
462.46257831093942	180.77271555822861	0	1	0
462.46257831093942	181.24271555822861	0	1	0
462.46257831093942	181.7827155582286	0	1	0
462.46257831093942	182.26271555822859	0	1	0
462.46257831093942	182.7827155582286	0	1	0
462.46257831093942	184.2527155582286	0	1	0
462.46257831093942	184.7827155582286	0	1	0
462.46257831093942	185.26271555822859	0	1	0
462.46257831093942	185.7827155582286	0	1	0
462.46257831093942	186.27271555822861	0	1	0
462.46257831093942	186.7827155582286	0	1	0
462.46257831093942	187.24271555822861	0	1	0
462.46257831093942	187.79271555822859	0	1	0
462.46257831093942	188.27271555822861	0	1	0
462.46257831093942	188.8127155582286	0	1	0
462.46257831093942	190.26271555822859	0	1	0
462.46257831093942	190.7827155582286	0	1	0
462.46257831093942	191.30371555822859	0	1	0
462.46257831093942	191.79271555822859	0	1	0
462.46257831093942	192.6327155582286	0	1	0
462.46257831093942	193.74598655822859	0	1	0
462.46257831093942	195.5055075582286	0	1	0
462.47650631093939	195.6493315582286	0	1	0
462.47838031093937	195.6587525582286	0	1	0
462.51823131093943	195.7901235582286	0	1	0
462.52190031093937	195.7989835582286	0	1	0
462.5866203109394	195.92006355822861	0	1	0
462.59194931093941	195.92803955822859	0	1	0
462.67903931093929	196.03416055822859	0	1	0
462.68583231093942	196.04095255822861	0	1	0
462.79195231093939	196.1280425582286	0	1	0
462.79992831093938	196.13337155822859	0	1	0
462.92100831093938	196.19809155822861	0	1	0
462.92986831093941	196.20176055822861	0	1	0
463.06124031093941	196.24161255822861	0	1	0
463.07065931093939	196.2434855582286	0	1	0
463.2096823109394	196.25717755822859	0	1	0
463.25624831093938	196.25741355822859	0	1	0
546.36790831093936	196.25741355822859	0	1	0
468.66157831093938	163.1492175582286	0	1	0
468.69618131093938	162.97525755822861	0	1	0
468.76406331093938	162.81137055822859	0	1	0
468.7765293109394	162.7927135582286	0	1	0
468.86261131093943	162.66388155822861	0	1	0
468.98804531093941	162.5384475582286	0	1	0
469.0390663109394	162.50435655822861	0	1	0
469.13553131093943	162.4399005582286	0	1	0
469.29941231093937	162.3720195582286	0	1	0
469.47338131093937	162.3374145582286	0	1	0
469.65076931093938	162.3374135582286	0	1	0
469.82474431093942	162.3720195582286	0	1	0
469.98862531093943	162.4399005582286	0	1	0
470.13611331093938	162.53844955822859	0	1	0
470.26154231093938	162.66387855822859	0	1	0
470.36009131093942	162.8113665582286	0	1	0
470.42797231093942	162.9752475582286	0	1	0
470.46257831093942	163.14922255822859	0	1	0
470.46257831093942	163.32660455822861	0	1	0
470.42797431093942	163.50057055822859	0	1	0
470.36009131093942	163.6644605582286	0	1	0
470.27439531093938	163.7927135582286	0	1	0
470.26154431093943	163.81194655822861	0	1	0
470.13611031093939	163.9373805582286	0	1	0
470.04809931093939	163.9961875582286	0	1	0
469.98862531093943	164.0359265582286	0	1	0
469.82474531093942	164.1038075582286	0	1	0
469.65077431093943	164.13841355822859	0	1	0
469.47338731093942	164.13841355822859	0	1	0
469.29942131093941	164.10381055822859	0	1	0
469.13553431093942	164.03592855822859	0	1	0
468.98804531093941	163.9373805582286	0	1	0
468.86261131093943	163.81194655822861	0	1	0
468.76406331093938	163.66445755822861	0	1	0
468.69618431093937	163.50058155822859	0	1	0
468.66157831093938	163.32661055822859	0	1	0
468.66157831093938	168.22921755822861	0	1	0
468.69618131093938	168.05525755822859	0	1	0
468.75120531093938	167.92241355822861	0	1	0
468.76406531093937	167.89136655822861	0	1	0
468.79859931093938	167.83968355822859	0	1	0
468.86261131093943	167.74388155822859	0	1	0
468.98804531093941	167.61844755822861	0	1	0
469.04671831093941	167.5792435582286	0	1	0
469.13553131093943	167.51990055822861	0	1	0
469.29941231093937	167.45201955822861	0	1	0
469.47338131093937	167.41741455822859	0	1	0
469.65076931093938	167.41741355822859	0	1	0
469.67431031093929	167.42209655822859	0	1	0
469.69191431093941	167.42559755822859	0	1	0
469.82474431093942	167.45201955822861	0	1	0
469.98862531093943	167.51990055822861	0	1	0
470.13611331093938	167.6184495582286	0	1	0
470.26154231093938	167.7438785582286	0	1	0
470.3209013109394	167.83271555822861	0	1	0
470.36009131093942	167.89136655822861	0	1	0
470.42797231093942	168.05524755822859	0	1	0
470.46257831093942	168.2292225582286	0	1	0
470.46257831093942	168.37271555822861	0	1	0
470.46257831093942	168.40660455822859	0	1	0
470.45545531093939	168.44241455822859	0	1	0
470.42797431093942	168.5805705582286	0	1	0
470.40351931093937	168.6396135582286	0	1	0
470.36009131093942	168.74446055822861	0	1	0
470.3412123109394	168.77271555822861	0	1	0
470.27355231093941	168.87397455822861	0	1	0
470.26154431093943	168.8919465582286	0	1	0
470.13611031093939	169.01738055822861	0	1	0
470.04809931093939	169.07618755822861	0	1	0
469.98862531093943	169.11592655822861	0	1	0
469.82474531093942	169.18380755822861	0	1	0
469.65077431093943	169.2184135582286	0	1	0
469.47338731093942	169.2184135582286	0	1	0
469.29942131093941	169.1838105582286	0	1	0
469.13553431093942	169.1159285582286	0	1	0
468.98804531093941	169.01738055822861	0	1	0
468.86261131093943	168.8919465582286	0	1	0
468.76406331093938	168.74445755822859	0	1	0
468.69618431093937	168.5805815582286	0	1	0
468.66157831093938	168.40661055822861	0	1	0
483.01007831093938	150.90791355822861	0	1	0
481.71007831093942	150.90791355822861	0	1	0
541.30507831093939	150.9279135582286	0	1	0
540.00507831093944	150.9279135582286	0	1	0
541.30507831093939	194.62791355822861	0	1	0
540.00507831093944	194.62791355822861	0	1	0
477.93007831093939	194.6079135582286	0	1	0
476.63007831093944	194.6079135582286	0	1	0
538.76507831093943	194.62791355822861	0	1	0
537.46507831093948	194.62791355822861	0	1	0
477.93007831093939	150.90791355822861	0	1	0
476.63007831093944	150.90791355822861	0	1	0
480.47007831093936	192.06791355822861	0	1	0
479.1700783109394	192.06791355822861	0	1	0
538.76507831093943	150.9279135582286	0	1	0
537.46507831093948	150.9279135582286	0	1	0
541.30507831093939	148.3879135582286	0	1	0
540.00507831093944	148.3879135582286	0	1	0
541.30507831093939	192.08791355822859	0	1	0
540.00507831093944	192.08791355822859	0	1	0
485.5500783109394	192.06791355822861	0	1	0
484.25007831093944	192.06791355822861	0	1	0
477.93007831093939	192.06791355822861	0	1	0
476.63007831093944	192.06791355822861	0	1	0
538.76507831093943	148.3879135582286	0	1	0
537.46507831093948	148.3879135582286	0	1	0
483.01007831093938	192.06791355822861	0	1	0
481.71007831093942	192.06791355822861	0	1	0
485.5500783109394	150.90791355822861	0	1	0
484.25007831093944	150.90791355822861	0	1	0
483.01007831093938	148.36791355822859	0	1	0
481.71007831093942	148.36791355822859	0	1	0
519.72507831093924	192.06791355822861	0	1	0
518.42507831093928	192.06791355822861	0	1	0
480.47007831093936	150.90791355822861	0	1	0
479.1700783109394	150.90791355822861	0	1	0
522.26507831093943	192.08791355822859	0	1	0
520.96507831093948	192.08791355822859	0	1	0
470.0620783109394	165.77791355822859	0	1	0
469.0620783109394	165.77791355822859	0	1	0
522.26507831093943	194.62791355822861	0	1	0
520.96507831093948	194.62791355822861	0	1	0
483.01007831093938	194.6079135582286	0	1	0
481.71007831093942	194.6079135582286	0	1	0
538.76507831093943	192.08791355822859	0	1	0
537.46507831093948	192.08791355822859	0	1	0
519.72507831093924	194.6079135582286	0	1	0
518.42507831093928	194.6079135582286	0	1	0
480.47007831093936	194.6079135582286	0	1	0
479.1700783109394	194.6079135582286	0	1	0
480.47007831093936	148.36791355822859	0	1	0
479.1700783109394	148.36791355822859	0	1	0
477.93007831093939	148.36791355822859	0	1	0
476.63007831093944	148.36791355822859	0	1	0
485.5500783109394	148.36791355822859	0	1	0
484.25007831093944	148.36791355822859	0	1	0
485.5500783109394	194.6079135582286	0	1	0
484.25007831093944	194.6079135582286	0	1	0
470.18273868547243	168.31260628505689	0	1	0
432.89999999999998	277.80000000000001	0	0	0
[NumSegments] = 325
0	1	-1	0	0	1	0
1	2	-1	0	0	1	0
2	3	-1	0	0	1	0
3	4	-1	0	0	1	0
4	5	-1	0	0	1	0
5	6	-1	0	0	1	0
6	7	-1	0	0	1	0
7	8	-1	0	0	1	0
8	9	-1	0	0	1	0
9	10	-1	0	0	1	0
10	11	-1	0	0	1	0
11	12	-1	0	0	1	0
12	13	-1	0	0	1	0
13	14	-1	0	0	1	0
14	15	-1	0	0	1	0
15	16	-1	0	0	1	0
16	17	-1	0	0	1	0
17	18	-1	0	0	1	0
18	19	-1	0	0	1	0
19	20	-1	0	0	1	0
20	21	-1	0	0	1	0
21	22	-1	0	0	1	0
22	23	-1	0	0	1	0
23	24	-1	0	0	1	0
24	25	-1	0	0	1	0
25	26	-1	0	0	1	0
26	27	-1	0	0	1	0
27	28	-1	0	0	1	0
28	29	-1	0	0	1	0
29	30	-1	0	0	1	0
30	31	-1	0	0	1	0
31	32	-1	0	0	1	0
32	33	-1	0	0	1	0
33	34	-1	0	0	1	0
34	35	-1	0	0	1	0
35	36	-1	0	0	1	0
36	37	-1	0	0	1	0
37	38	-1	0	0	1	0
38	39	-1	0	0	1	0
39	40	-1	0	0	1	0
40	41	-1	0	0	1	0
41	42	-1	0	0	1	0
42	43	-1	0	0	1	0
43	44	-1	0	0	1	0
44	45	-1	0	0	1	0
45	46	-1	0	0	1	0
46	47	-1	0	0	1	0
47	48	-1	0	0	1	0
48	49	-1	0	0	1	0
49	50	-1	0	0	1	0
50	51	-1	0	0	1	0
51	52	-1	0	0	1	0
52	53	-1	0	0	1	0
53	54	-1	0	0	1	0
54	55	-1	0	0	1	0
55	56	-1	0	0	1	0
56	57	-1	0	0	1	0
57	58	-1	0	0	1	0
58	59	-1	0	0	1	0
59	60	-1	0	0	1	0
60	61	-1	0	0	1	0
61	62	-1	0	0	1	0
62	63	-1	0	0	1	0
63	64	-1	0	0	1	0
64	65	-1	0	0	1	0
65	66	-1	0	0	1	0
66	67	-1	0	0	1	0
67	68	-1	0	0	1	0
68	69	-1	0	0	1	0
69	70	-1	0	0	1	0
70	71	-1	0	0	1	0
71	72	-1	0	0	1	0
72	73	-1	0	0	1	0
73	74	-1	0	0	1	0
74	75	-1	0	0	1	0
75	76	-1	0	0	1	0
76	77	-1	0	0	1	0
77	78	-1	0	0	1	0
78	79	-1	0	0	1	0
79	80	-1	0	0	1	0
80	81	-1	0	0	1	0
81	82	-1	0	0	1	0
82	83	-1	0	0	1	0
83	84	-1	0	0	1	0
84	85	-1	0	0	1	0
85	86	-1	0	0	1	0
86	87	-1	0	0	1	0
87	88	-1	0	0	1	0
88	89	-1	0	0	1	0
89	90	-1	0	0	1	0
90	91	-1	0	0	1	0
91	92	-1	0	0	1	0
92	93	-1	0	0	1	0
93	94	-1	0	0	1	0
94	95	-1	0	0	1	0
95	96	-1	0	0	1	0
96	97	-1	0	0	1	0
97	98	-1	0	0	1	0
98	99	-1	0	0	1	0
99	100	-1	0	0	1	0
100	101	-1	0	0	1	0
101	102	-1	0	0	1	0
102	103	-1	0	0	1	0
103	104	-1	0	0	1	0
104	105	-1	0	0	1	0
105	106	-1	0	0	1	0
106	107	-1	0	0	1	0
107	108	-1	0	0	1	0
108	109	-1	0	0	1	0
109	110	-1	0	0	1	0
110	111	-1	0	0	1	0
111	112	-1	0	0	1	0
112	113	-1	0	0	1	0
113	114	-1	0	0	1	0
114	115	-1	0	0	1	0
115	116	-1	0	0	1	0
116	117	-1	0	0	1	0
117	118	-1	0	0	1	0
118	119	-1	0	0	1	0
119	120	-1	0	0	1	0
120	121	-1	0	0	1	0
121	122	-1	0	0	1	0
122	123	-1	0	0	1	0
123	124	-1	0	0	1	0
124	125	-1	0	0	1	0
125	126	-1	0	0	1	0
126	127	-1	0	0	1	0
127	128	-1	0	0	1	0
128	129	-1	0	0	1	0
129	130	-1	0	0	1	0
130	131	-1	0	0	1	0
131	132	-1	0	0	1	0
132	133	-1	0	0	1	0
133	134	-1	0	0	1	0
134	135	-1	0	0	1	0
135	136	-1	0	0	1	0
136	137	-1	0	0	1	0
137	138	-1	0	0	1	0
138	139	-1	0	0	1	0
139	140	-1	0	0	1	0
140	141	-1	0	0	1	0
141	142	-1	0	0	1	0
142	143	-1	0	0	1	0
143	144	-1	0	0	1	0
144	145	-1	0	0	1	0
145	146	-1	0	0	1	0
146	147	-1	0	0	1	0
147	148	-1	0	0	1	0
148	149	-1	0	0	1	0
149	150	-1	0	0	1	0
150	151	-1	0	0	1	0
151	152	-1	0	0	1	0
152	153	-1	0	0	1	0
153	154	-1	0	0	1	0
154	155	-1	0	0	1	0
155	156	-1	0	0	1	0
156	157	-1	0	0	1	0
157	158	-1	0	0	1	0
158	159	-1	0	0	1	0
159	160	-1	0	0	1	0
160	161	-1	0	0	1	0
161	162	-1	0	0	1	0
162	163	-1	0	0	1	0
163	164	-1	0	0	1	0
164	165	-1	0	0	1	0
165	166	-1	0	0	1	0
166	167	-1	0	0	1	0
167	168	-1	0	0	1	0
168	169	-1	0	0	1	0
169	170	-1	0	0	1	0
170	171	-1	0	0	1	0
171	172	-1	0	0	1	0
172	173	-1	0	0	1	0
173	174	-1	0	0	1	0
174	175	-1	0	0	1	0
175	176	-1	0	0	1	0
176	177	-1	0	0	1	0
177	178	-1	0	0	1	0
178	179	-1	0	0	1	0
179	180	-1	0	0	1	0
180	181	-1	0	0	1	0
181	182	-1	0	0	1	0
182	183	-1	0	0	1	0
183	184	-1	0	0	1	0
184	185	-1	0	0	1	0
185	186	-1	0	0	1	0
186	187	-1	0	0	1	0
187	188	-1	0	0	1	0
188	189	-1	0	0	1	0
189	190	-1	0	0	1	0
190	191	-1	0	0	1	0
191	192	-1	0	0	1	0
192	193	-1	0	0	1	0
193	194	-1	0	0	1	0
194	195	-1	0	0	1	0
195	196	-1	0	0	1	0
196	197	-1	0	0	1	0
197	198	-1	0	0	1	0
198	199	-1	0	0	1	0
199	200	-1	0	0	1	0
200	201	-1	0	0	1	0
201	202	-1	0	0	1	0
202	203	-1	0	0	1	0
203	204	-1	0	0	1	0
204	205	-1	0	0	1	0
205	206	-1	0	0	1	0
206	207	-1	0	0	1	0
207	208	-1	0	0	1	0
208	209	-1	0	0	1	0
209	210	-1	0	0	1	0
210	211	-1	0	0	1	0
211	212	-1	0	0	1	0
212	213	-1	0	0	1	0
213	214	-1	0	0	1	0
214	215	-1	0	0	1	0
215	216	-1	0	0	1	0
216	217	-1	0	0	1	0
217	218	-1	0	0	1	0
218	219	-1	0	0	1	0
219	220	-1	0	0	1	0
220	221	-1	0	0	1	0
221	222	-1	0	0	1	0
222	223	-1	0	0	1	0
223	224	-1	0	0	1	0
224	225	-1	0	0	1	0
225	226	-1	0	0	1	0
226	227	-1	0	0	1	0
227	228	-1	0	0	1	0
228	229	-1	0	0	1	0
229	230	-1	0	0	1	0
230	231	-1	0	0	1	0
231	232	-1	0	0	1	0
232	233	-1	0	0	1	0
233	234	-1	0	0	1	0
234	235	-1	0	0	1	0
235	236	-1	0	0	1	0
236	237	-1	0	0	1	0
237	238	-1	0	0	1	0
238	239	-1	0	0	1	0
239	240	-1	0	0	1	0
240	241	-1	0	0	1	0
241	242	-1	0	0	1	0
242	243	-1	0	0	1	0
243	244	-1	0	0	1	0
244	0	-1	0	0	1	0
245	246	-1	0	0	1	0
246	247	-1	0	0	1	0
247	248	-1	0	0	1	0
248	249	-1	0	0	1	0
249	250	-1	0	0	1	0
250	251	-1	0	0	1	0
251	252	-1	0	0	1	0
252	253	-1	0	0	1	0
253	254	-1	0	0	1	0
254	255	-1	0	0	1	0
255	256	-1	0	0	1	0
256	257	-1	0	0	1	0
257	258	-1	0	0	1	0
258	259	-1	0	0	1	0
259	260	-1	0	0	1	0
260	261	-1	0	0	1	0
261	262	-1	0	0	1	0
262	263	-1	0	0	1	0
263	264	-1	0	0	1	0
264	265	-1	0	0	1	0
265	266	-1	0	0	1	0
266	267	-1	0	0	1	0
267	268	-1	0	0	1	0
268	269	-1	0	0	1	0
269	270	-1	0	0	1	0
270	271	-1	0	0	1	0
271	272	-1	0	0	1	0
272	273	-1	0	0	1	0
273	274	-1	0	0	1	0
274	275	-1	0	0	1	0
275	276	-1	0	0	1	0
276	277	-1	0	0	1	0
277	278	-1	0	0	1	0
278	279	-1	0	0	1	0
279	280	-1	0	0	1	0
280	245	-1	0	0	1	0
281	282	-1	0	0	1	0
282	283	-1	0	0	1	0
283	284	-1	0	0	1	0
284	285	-1	0	0	1	0
285	286	-1	0	0	1	0
286	287	-1	0	0	1	0
287	288	-1	0	0	1	0
288	289	-1	0	0	1	0
289	290	-1	0	0	1	0
290	291	-1	0	0	1	0
291	292	-1	0	0	1	0
292	293	-1	0	0	1	0
293	294	-1	0	0	1	0
294	295	-1	0	0	1	0
295	296	-1	0	0	1	0
296	297	-1	0	0	1	0
297	298	-1	0	0	1	0
298	299	-1	0	0	1	0
299	300	-1	0	0	1	0
300	301	-1	0	0	1	0
301	302	-1	0	0	1	0
302	303	-1	0	0	1	0
303	304	-1	0	0	1	0
304	305	-1	0	0	1	0
305	306	-1	0	0	1	0
306	307	-1	0	0	1	0
307	308	-1	0	0	1	0
308	309	-1	0	0	1	0
309	310	-1	0	0	1	0
310	311	-1	0	0	1	0
311	312	-1	0	0	1	0
312	313	-1	0	0	1	0
313	314	-1	0	0	1	0
314	315	-1	0	0	1	0
315	316	-1	0	0	1	0
316	317	-1	0	0	1	0
317	318	-1	0	0	1	0
318	319	-1	0	0	1	0
319	320	-1	0	0	1	0
320	321	-1	0	0	1	0
321	322	-1	0	0	1	0
322	323	-1	0	0	1	0
323	324	-1	0	0	1	0
324	281	-1	0	0	1	0
[NumArcSegments] = 58
325	326	180	5	1	0	1	0	5
326	325	180	5	1	0	1	0	5
327	328	180	5	1	0	1	0	5
328	327	180	5	1	0	1	0	5
329	330	180	5	1	0	1	0	5
330	329	180	5	1	0	1	0	5
331	332	180	5	1	0	1	0	5
332	331	180	5	1	0	1	0	5
333	334	180	5	1	0	1	0	5
334	333	180	5	1	0	1	0	5
335	336	180	5	1	0	1	0	5
336	335	180	5	1	0	1	0	5
337	338	180	5	1	0	1	0	5
338	337	180	5	1	0	1	0	5
339	340	180	5	1	0	1	0	5
340	339	180	5	1	0	1	0	5
341	342	180	5	1	0	1	0	5
342	341	180	5	1	0	1	0	5
343	344	180	5	1	0	1	0	5
344	343	180	5	1	0	1	0	5
345	346	180	5	1	0	1	0	5
346	345	180	5	1	0	1	0	5
347	348	180	5	1	0	1	0	5
348	347	180	5	1	0	1	0	5
349	350	180	5	1	0	1	0	5
350	349	180	5	1	0	1	0	5
351	352	180	5	1	0	1	0	5
352	351	180	5	1	0	1	0	5
353	354	180	5	1	0	1	0	5
354	353	180	5	1	0	1	0	5
355	356	180	5	1	0	1	0	5
356	355	180	5	1	0	1	0	5
357	358	180	5	1	0	1	0	5
358	357	180	5	1	0	1	0	5
359	360	180	5	1	0	1	0	5
360	359	180	5	1	0	1	0	5
361	362	180	5	1	0	1	0	5
362	361	180	5	1	0	1	0	5
363	364	180	5	4	0	1	0	5
364	363	180	5	4	0	1	0	5
365	366	180	5	1	0	1	0	5
366	365	180	5	1	0	1	0	5
367	368	180	5	1	0	1	0	5
368	367	180	5	1	0	1	0	5
369	370	180	5	3	0	1	0	5
370	369	180	5	3	0	1	0	5
371	372	180	5	1	0	1	0	5
372	371	180	5	1	0	1	0	5
373	374	180	5	1	0	1	0	5
374	373	180	5	1	0	1	0	5
375	376	180	5	1	0	1	0	5
376	375	180	5	1	0	1	0	5
377	378	180	5	1	0	1	0	5
378	377	180	5	1	0	1	0	5
379	380	180	5	1	0	1	0	5
380	379	180	5	4	0	1	0	5
381	382	180	5	1	0	1	0	5
382	381	180	5	1	0	1	0	5
[NumHoles] = 31
477.30000000000001	194.40000000000001	0
479.89999999999998	195	0
482.39999999999998	194.59999999999999	0
484.80000000000001	194.59999999999999	0
485	192.09999999999999	0
482.5	192.09999999999999	0
479.60000000000002	192.19999999999999	0
477.5	192.09999999999999	0
518.70000000000005	194.5	0
519	191.90000000000001	0
521.70000000000005	192.09999999999999	0
521.70000000000005	194.5	0
537.79999999999995	194.59999999999999	0
538.29999999999995	192.30000000000001	0
540.70000000000005	192.19999999999999	0
540.70000000000005	194.59999999999999	0
538.29999999999995	151	0
538.10000000000002	148.19999999999999	0
540.5	148.30000000000001	0
540.5	150.59999999999999	0
484.89999999999998	150.80000000000001	0
484.39999999999998	148.5	0
482.10000000000002	148	0
482.39999999999998	151	0
479.69999999999999	150.80000000000001	0
479.89999999999998	148.5	0
477.19999999999999	148.30000000000001	0
477	150.90000000000001	0
469.60000000000002	165.69999999999999	0
469.49000000000001	167.56999999999999	0
469.44999999999999	163.46000000000001	0
[NumBlockLabels] = 1
502.60000000000002	172.40000000000001	1	-1	0	0
