[Format]      =  1
[Precision]   =  1e-008
[Frequency]   =  60
[MinAngle]    =  30
[DoSmartMesh] =  1
[Depth]       =  0.035000000000000003
[LengthUnits] =  millimeters
[ProblemType] =  planar
[Coordinates] =  cartesian
[Comment]     =  "Add comments here."
[PointProps]   = 0
[BdryProps]   = 2
  <BeginBdry>
    <BdryName> = "3.3V"
    <BdryType> = 0
    <vsr> = 3.2999999999999998
    <vsi> = 0
    <qsr> = 0
    <qsi> = 0
    <c0r>  = 0
    <c0i>  = 0
    <c1r>  = 0
    <c1i>  = 0
  <EndBdry>
  <BeginBdry>
    <BdryName> = "3.3V_VMM_line"
    <BdryType> = 2
    <vsr> = 0
    <vsi> = 0
    <qsr> = -71428571
    <qsi> = 0
    <c0r>  = 0
    <c0i>  = 0
    <c1r>  = 0
    <c1i>  = 0
  <EndBdry>
[BlockProps]  = 1
  <BeginBlock>
    <BlockName> = "Copper"
    <ox> = 58000000
    <oy> = 58000000
    <ex> = 1
    <ey> = 1
    <ltx> = 0
    <lty> = 0
  <EndBlock>
[ConductorProps]  = 2
  <BeginConductor>
    <ConductorName> = "1A"
    <vcr> = 0
    <vci> = 0
    <qcr> = -1
    <qci> = 0
    <ConductorType> = 0
  <EndConductor>
  <BeginConductor>
    <ConductorName> = "0.01A"
    <vcr> = 0
    <vci> = 0
    <qcr> = -0.10000000000000001
    <qci> = 0
    <ConductorType> = 0
  <EndConductor>
[NumPoints] = 176
153.28581	-86.667135000000002	0	0	0
153.30372699999998	-86.692000999999991	0	0	0
153.336187	-86.765515999999991	0	0	0
153.41298399999999	-86.84231299999999	0	0	0
153.512338	-86.886181999999991	0	0	0
153.53662699999998	-86.888999999999996	0	0	0
153.96337199999999	-86.888998999999998	0	0	0
153.987662	-86.886181999999991	0	0	0
154.08701600000001	-86.84231299999999	0	0	0
154.14865499999999	-86.780673999999991	0	0	0
154.20098099999998	-86.759	0	0	0
154.74821900000001	-86.759	0	0	0
154.800545	-86.780673999999991	0	0	0
154.82221899999999	-86.832999999999998	0	0	0
154.82109499999999	-86.845843000000002	0	0	0
154.81886399999999	-86.858499999999992	0	0	0
154.837265	-86.962862000000001	0	0	0
154.890252	-87.054638999999995	0	0	0
154.971429	-87.122754	0	0	0
155.071011	-87.158998999999994	0	0	0
155.11300299999999	-87.158999999999992	0	0	0
155.12238399999998	-87.159596999999991	0	0	0
155.14717999999999	-87.162765999999991	0	0	0
155.20369700000001	-87.158846999999994	0	0	0
155.20881199999999	-87.158492999999993	0	0	0
155.22134199999999	-87.157110000000003	0	0	0
155.221565	-87.157075999999989	0	0	0
155.22322800000001	-87.156824	0	0	0
155.23566599999998	-87.154416999999995	0	0	0
155.28675899999999	-87.142348999999996	0	0	0
155.29330299999998	-87.140652000000003	0	0	0
155.29426899999999	-87.140378999999996	0	0	0
155.300164	-87.138577999999995	0	0	0
155.356539	-87.144015999999993	0	0	0
155.39255699999998	-87.187725	0	0	0
155.39466299999998	-87.222197999999992	0	0	0
155.37815799999998	-87.315803000000002	0	0	0
155.39809	-87.42884699999999	0	0	0
155.45548499999998	-87.528260000000003	0	0	0
155.54341499999998	-87.602041999999997	0	0	0
155.593716	-87.620350000000002	0	0	0
155.65128300000001	-87.641303999999991	0	0	0
155.766075	-87.641303999999991	0	0	0
155.83798400000001	-87.615129999999994	0	0	0
155.87394	-87.602043999999992	0	0	0
155.908434	-87.573098999999999	0	0	0
155.96244799999999	-87.556067999999996	0	0	0
156.012687	-87.582219999999992	0	0	0
156.03	-87.629786999999993	0	0	0
156.03	-118.07534799999999	0	0	0
156.02599999999998	-118.085004	0	0	0
156.02599999999998	-119.308436	0	0	0
156.006315	-119.37547499999999	0	0	0
155.95351099999999	-119.42122999999999	0	0	0
155.90093999999999	-119.43243099999999	0	0	0
154.85599999999999	-119.42349899999999	0	0	0
154.85599999999999	-121.92949999999999	0	0	0
154.83631499999998	-121.996539	0	0	0
154.81999999999999	-122.01067599999999	0	0	0
154.81999999999999	-122.455	0	0	0
154.812769	-122.491355	0	0	0
154.79217499999999	-122.52217499999999	0	0	0
154.76135499999998	-122.54276899999999	0	0	0
154.72499999999999	-122.55	0	0	0
154.535	-122.55	0	0	0
154.49864499999998	-122.54276899999999	0	0	0
154.467825	-122.52217499999999	0	0	0
154.44723099999999	-122.491355	0	0	0
154.44	-122.455	0	0	0
154.44	-122.0535	0	0	0
154.23999999999998	-122.0535	0	0	0
154.23999999999998	-122.47499999999999	0	0	0
154.23276899999999	-122.51135499999999	0	0	0
154.212175	-122.542175	0	0	0
154.181355	-122.56276899999999	0	0	0
154.14499999999998	-122.56999999999999	0	0	0
153.95499999999998	-122.56999999999999	0	0	0
153.918645	-122.56276899999999	0	0	0
153.88782499999999	-122.542175	0	0	0
153.867231	-122.51135499999999	0	0	0
153.85999999999999	-122.47499999999999	0	0	0
153.85999999999999	-122.0535	0	0	0
153.65000000000001	-122.0535	0	0	0
153.65000000000001	-122.47499999999999	0	0	0
153.64276899999999	-122.51135499999999	0	0	0
153.622175	-122.542175	0	0	0
153.59135499999999	-122.56276899999999	0	0	0
153.55500000000001	-122.56999999999999	0	0	0
153.36499999999998	-122.56999999999999	0	0	0
153.32864499999999	-122.56276899999999	0	0	0
153.29782499999999	-122.542175	0	0	0
153.277231	-122.51135499999999	0	0	0
153.26999999999998	-122.47499999999999	0	0	0
153.26999999999998	-121.947886	0	0	0
153.26599999999999	-121.92949999999999	0	0	0
153.26599999999999	-119.42349899999999	0	0	0
152.15099999999998	-119.432491	0	0	0
152.08380399999999	-119.413348	0	0	0
152.03762499999999	-119.36091399999999	0	0	0
152.02599999999998	-119.30849499999999	0	0	0
152.02599999999998	-117.22886199999999	0	0	0
152.03	-117.215239	0	0	0
152.03	-117.17349999999999	0	0	0
152.03	-113.47999999999999	0	0	0
152.03	-112.19	0	0	0
152.03	-105.61	0	0	0
152.03	-95.109999999999999	0	0	0
150.03	-93.109999999999999	0	0	0
144.00538399999999	-93.109999999999999	0	0	0
143.95781700000001	-93.092686999999998	0	0	0
143.93526	-93.073758999999995	0	0	0
143.82739599999999	-93.034499999999994	0	0	0
143.71260599999999	-93.034499999999994	0	0	0
143.60473999999999	-93.073758999999995	0	0	0
143.58218399999998	-93.092686999999998	0	0	0
143.534617	-93.109999999999999	0	0	0
141.891549	-93.109999999999999	0	0	0
141.851731	-93.095506	0	0	0
141.85086999999999	-93.096997999999999	0	0	0
141.84526099999999	-93.093759999999989	0	0	0
141.73739599999999	-93.05449999999999	0	0	0
141.62260599999999	-93.05449999999999	0	0	0
141.51473899999999	-93.093759999999989	0	0	0
141.509131	-93.096997999999999	0	0	0
141.50826899999998	-93.095506	0	0	0
141.46845199999998	-93.109999999999999	0	0	0
138.63154900000001	-93.109999999999999	0	0	0
138.59173099999998	-93.095506	0	0	0
138.59087	-93.096997999999999	0	0	0
138.585261	-93.093759999999989	0	0	0
138.477396	-93.05449999999999	0	0	0
138.362606	-93.05449999999999	0	0	0
138.254739	-93.093759999999989	0	0	0
138.24913100000001	-93.096997999999999	0	0	0
138.24826899999999	-93.095506	0	0	0
138.20845199999999	-93.109999999999999	0	0	0
136.170502	-93.109999999999999	0	0	0
136.145194	-93.105536999999998	0	0	0
136.10988799999998	-93.092686999999998	0	0	0
136.08739499999999	-93.084499999999991	0	0	0
135.97260599999998	-93.084499999999991	0	0	0
135.95011199999999	-93.092686999999998	0	0	0
135.914806	-93.105536999999998	0	0	0
135.889498	-93.109999999999999	0	0	0
132.52154899999999	-93.109999999999999	0	0	0
132.481731	-93.095506	0	0	0
132.48086999999998	-93.096997999999999	0	0	0
132.47526099999999	-93.093759999999989	0	0	0
132.36739599999999	-93.05449999999999	0	0	0
132.25260599999999	-93.05449999999999	0	0	0
132.14473899999999	-93.093759999999989	0	0	0
132.13913099999999	-93.096997999999999	0	0	0
132.13826900000001	-93.095506	0	0	0
132.09845199999998	-93.109999999999999	0	0	0
131.10399999999998	-93.109999999999999	0	0	0
131.05167399999999	-93.088325999999995	0	0	0
131.03	-93.036000000000001	0	0	0
131.03	-90.259999999999991	0	0	0
130.60999999999999	-90.259999999999991	0	0	0
130.59049099999999	-90.258078999999995	0	0	0
130.55444299999999	-90.243146999999993	0	0	0
130.52685299999999	-90.21555699999999	0	0	0
130.511921	-90.179508999999996	0	0	0
130.50999999999999	-90.159999999999997	0	0	0
130.50999999999999	-90.019999999999996	0	0	0
130.511921	-90.000490999999997	0	0	0
130.52685299999999	-89.964443000000003	0	0	0
130.55444299999999	-89.936852999999999	0	0	0
130.59049099999999	-89.921920999999998	0	0	0
130.60999999999999	-89.920000000000002	0	0	0
131.03	-89.920000000000002	0	0	0
131.03	-87.183999999999997	0	0	0
131.05167399999999	-87.13167399999999	0	0	0
131.10399999999998	-87.109999999999999	0	0	0
143.52999499999999	-87.109999999999999	0	0	0
153.23251299999998	-86.647975000000002	0	0	0
[NumSegments] = 176
0	1	-1	0	0	0	0
1	2	-1	0	0	0	0
2	3	-1	0	0	0	0
3	4	-1	0	0	0	0
4	5	-1	0	0	0	0
5	6	-1	0	0	0	0
6	7	-1	0	0	0	0
7	8	-1	0	0	0	0
8	9	-1	0	0	0	0
9	10	-1	0	0	0	0
10	11	-1	0	0	0	0
11	12	-1	0	0	0	0
12	13	-1	0	0	0	0
13	14	-1	0	0	0	0
14	15	-1	0	0	0	0
15	16	-1	0	0	0	0
16	17	-1	0	0	0	0
17	18	-1	0	0	0	0
18	19	-1	0	0	0	0
19	20	-1	0	0	0	0
20	21	-1	0	0	0	0
21	22	-1	0	0	0	0
22	23	-1	0	0	0	0
23	24	-1	0	0	0	0
24	25	-1	0	0	0	0
25	26	-1	0	0	0	0
26	27	-1	0	0	0	0
27	28	-1	0	0	0	0
28	29	-1	0	0	0	0
29	30	-1	0	0	0	0
30	31	-1	0	0	0	0
31	32	-1	0	0	0	0
32	33	-1	0	0	0	0
33	34	-1	0	0	0	0
34	35	-1	0	0	0	0
35	36	-1	0	0	0	0
36	37	-1	0	0	0	2
37	38	-1	0	0	0	2
38	39	-1	0	0	0	2
39	40	-1	0	0	0	2
40	41	-1	0	0	0	2
41	42	-1	0	0	0	2
42	43	-1	0	0	0	0
43	44	-1	0	0	0	0
44	45	-1	0	0	0	0
45	46	-1	0	0	0	0
46	47	-1	0	0	0	0
47	48	-1	0	0	0	0
48	49	-1	0	0	0	0
49	50	-1	0	0	0	0
50	51	-1	0	0	0	0
51	52	-1	0	0	0	0
52	53	-1	0	0	0	0
53	54	-1	0	0	0	0
54	55	-1	0	0	0	0
55	56	-1	0	0	0	0
56	57	-1	0	0	0	0
57	58	-1	0	0	0	0
58	59	-1	0	0	0	0
59	60	-1	0	0	0	0
60	61	-1	0	0	0	0
61	62	-1	0	0	0	0
62	63	-1	0	0	0	0
63	64	-1	1	0	0	0
64	65	-1	0	0	0	0
65	66	-1	0	0	0	0
66	67	-1	0	0	0	0
67	68	-1	0	0	0	0
68	69	-1	0	0	0	0
69	70	-1	0	0	0	0
70	71	-1	0	0	0	0
71	72	-1	0	0	0	0
72	73	-1	0	0	0	0
73	74	-1	0	0	0	0
74	75	-1	0	0	0	0
75	76	-1	1	0	0	0
76	77	-1	0	0	0	0
77	78	-1	0	0	0	0
78	79	-1	0	0	0	0
79	80	-1	0	0	0	0
80	81	-1	0	0	0	0
81	82	-1	0	0	0	0
82	83	-1	0	0	0	0
83	84	-1	0	0	0	0
84	85	-1	0	0	0	0
85	86	-1	0	0	0	0
86	87	-1	0	0	0	0
87	88	-1	1	0	0	0
88	89	-1	0	0	0	0
89	90	-1	0	0	0	0
90	91	-1	0	0	0	0
91	92	-1	0	0	0	0
92	93	-1	0	0	0	0
93	94	-1	0	0	0	0
94	95	-1	0	0	0	0
95	96	-1	0	0	0	0
96	97	-1	0	0	0	0
97	98	-1	0	0	0	0
98	99	-1	0	0	0	0
99	100	-1	0	0	0	0
100	101	-1	0	0	0	0
101	102	-1	0	0	0	0
102	103	-1	0	0	0	0
103	104	-1	0	0	0	0
104	105	-1	0	0	0	0
105	106	-1	0	0	0	0
106	107	-1	0	0	0	0
107	108	-1	0	0	0	0
108	109	-1	0	0	0	0
109	110	-1	0	0	0	0
110	111	-1	0	0	0	0
111	112	-1	0	0	0	0
112	113	-1	0	0	0	0
113	114	-1	0	0	0	0
114	115	-1	0	0	0	0
115	116	-1	0	0	0	0
116	117	-1	0	0	0	0
117	118	-1	0	0	0	0
118	119	-1	0	0	0	0
119	120	-1	0	0	0	0
120	121	-1	0	0	0	0
121	122	-1	0	0	0	0
122	123	-1	0	0	0	0
123	124	-1	0	0	0	0
124	125	-1	0	0	0	0
125	126	-1	0	0	0	0
126	127	-1	0	0	0	0
127	128	-1	0	0	0	0
128	129	-1	0	0	0	0
129	130	-1	0	0	0	0
130	131	-1	0	0	0	0
131	132	-1	0	0	0	0
132	133	-1	0	0	0	0
133	134	-1	0	0	0	0
134	135	-1	0	0	0	0
135	136	-1	0	0	0	0
136	137	-1	0	0	0	0
137	138	-1	0	0	0	0
138	139	-1	0	0	0	0
139	140	-1	0	0	0	0
140	141	-1	0	0	0	0
141	142	-1	0	0	0	0
142	143	-1	0	0	0	0
143	144	-1	0	0	0	0
144	145	-1	0	0	0	0
145	146	-1	0	0	0	0
146	147	-1	0	0	0	0
147	148	-1	0	0	0	0
148	149	-1	0	0	0	0
149	150	-1	0	0	0	0
150	151	-1	0	0	0	0
151	152	-1	0	0	0	0
152	153	-1	0	0	0	0
153	154	-1	0	0	0	0
154	155	-1	0	0	0	0
155	156	-1	0	0	0	0
156	157	-1	0	0	0	0
157	158	-1	0	0	0	0
158	159	-1	0	0	0	0
159	160	-1	0	0	0	0
160	161	-1	0	0	0	0
161	162	-1	0	0	0	0
162	163	-1	0	0	0	0
163	164	-1	0	0	0	1
164	165	-1	0	0	0	0
165	166	-1	0	0	0	0
166	167	-1	0	0	0	0
167	168	-1	0	0	0	0
168	169	-1	0	0	0	0
169	170	-1	0	0	0	0
170	171	-1	0	0	0	0
171	172	-1	0	0	0	0
172	173	-1	0	0	0	0
173	174	-1	0	0	0	0
174	175	-1	0	0	0	0
175	0	-1	0	0	0	0
[NumArcSegments] = 0
[NumHoles] = 0
[NumBlockLabels] = 1
153.93000000000001	-95.849999999999994	1	0.10000000000000001	0	0
